untitled_line_2
     RDKit          3D

 45 48  0  0  0  0  0  0  0  0999 V2000
    2.7283   -3.4729    1.1629 F   0  0  0  0  0  0  0  0  0  0  0  0
    1.5814   -3.1817    0.5012 C   0  0  0  0  0  0  0  0  0  0  0  0
    0.4398   -3.9616    0.7076 C   0  0  0  0  0  0  0  0  0  0  0  0
   -0.7401   -3.6757    0.0137 C   0  0  0  0  0  0  0  0  0  0  0  0
   -0.7835   -2.6081   -0.8977 C   0  0  0  0  0  0  0  0  0  0  0  0
   -2.0633   -2.2797   -1.6241 C   0  0  0  0  0  0  0  0  0  0  0  0
   -3.0338   -1.5100   -0.7213 C   0  0  0  0  0  0  0  0  0  0  0  0
   -2.3898   -0.3934   -0.1092 O   0  0  0  0  0  0  0  0  0  0  0  0
   -1.9377    0.7535   -0.7767 C   0  0  0  0  0  0  0  0  0  0  0  0
   -2.3983    1.1227   -2.0607 C   0  0  0  0  0  0  0  0  0  0  0  0
   -1.8785    2.2280   -2.6798 N   0  0  0  0  0  4  0  0  0  0  0  0
   -0.9090    2.9871   -2.0917 C   0  0  0  0  0  0  0  0  0  0  0  0
   -0.4733    2.6170   -0.8255 C   0  0  0  0  0  0  0  0  0  0  0  0
    0.5093    3.1778   -0.1042 N   0  0  0  0  0  4  0  0  0  0  0  0
    0.6358    2.4679    1.0098 N   0  0  0  0  0  0  0  0  0  0  0  0
   -0.2925    1.4828    0.9512 C   0  0  0  0  0  0  0  0  0  0  0  0
   -0.4603    0.4729    2.0130 C   0  0  0  0  0  0  0  0  0  0  0  0
   -1.7192    0.2353    2.5775 C   0  0  0  0  0  0  0  0  0  0  0  0
   -1.8691   -0.7165    3.5853 C   0  0  0  0  0  0  0  0  0  0  0  0
   -0.7616   -1.4243    4.0630 C   0  0  0  0  0  0  0  0  0  0  0  0
   -1.0256   -2.6077    5.3407 Cl  0  0  0  0  0  0  0  0  0  0  0  0
    0.5239   -1.1711    3.5320 C   0  0  0  0  0  0  0  0  0  0  0  0
    1.7366   -1.9025    4.0661 C   0  0  0  0  0  0  0  0  0  0  0  0
    2.8957   -1.5273    3.4086 F   0  0  0  0  0  0  0  0  0  0  0  0
    1.8911   -1.6205    5.4113 F   0  0  0  0  0  0  0  0  0  0  0  0
    1.5677   -3.2657    3.9048 F   0  0  0  0  0  0  0  0  0  0  0  0
    0.6587   -0.2122    2.5076 C   0  0  0  0  0  0  0  0  0  0  0  0
   -0.9990    1.5554   -0.2019 N   0  0  0  0  0  0  0  0  0  0  0  0
    0.3619   -1.8149   -1.0834 C   0  0  0  0  0  0  0  0  0  0  0  0
    1.5399   -2.1035   -0.3879 C   0  0  0  0  0  0  0  0  0  0  0  0
    2.6408   -1.3343   -0.5754 F   0  0  0  0  0  0  0  0  0  0  0  0
    0.4685   -4.7893    1.4044 H   0  0  0  0  0  0  0  0  0  0  0  0
   -1.6188   -4.2849    0.1854 H   0  0  0  0  0  0  0  0  0  0  0  0
   -1.8472   -1.6816   -2.5353 H   0  0  0  0  0  0  0  0  0  0  0  0
   -2.5507   -3.2191   -1.9641 H   0  0  0  0  0  0  0  0  0  0  0  0
   -3.9281   -1.1846   -1.2928 H   0  0  0  0  0  0  0  0  0  0  0  0
   -3.3894   -2.1881    0.0834 H   0  0  0  0  0  0  0  0  0  0  0  0
   -3.1542    0.5419   -2.5701 H   0  0  0  0  0  0  0  0  0  0  0  0
   -2.2215    2.4883   -3.6313 H   0  0  0  0  0  0  0  0  0  0  0  0
   -0.4860    3.8423   -2.6033 H   0  0  0  0  0  0  0  0  0  0  0  0
    1.0961    4.0027   -0.3598 H   0  0  0  0  0  0  0  0  0  0  0  0
   -2.5860    0.7903    2.2402 H   0  0  0  0  0  0  0  0  0  0  0  0
   -2.8514   -0.8983    4.0027 H   0  0  0  0  0  0  0  0  0  0  0  0
    1.6305   -0.0004    2.0792 H   0  0  0  0  0  0  0  0  0  0  0  0
    0.3419   -0.9733   -1.7649 H   0  0  0  0  0  0  0  0  0  0  0  0
  1  2  1  0
  2  3  2  0
  3  4  1  0
  4  5  2  0
  5  6  1  0
  6  7  1  0
  7  8  1  0
  8  9  1  0
  9 10  2  0
 10 11  1  0
 11 12  2  0
 12 13  1  0
 13 14  2  0
 14 15  1  0
 15 16  2  0
 16 17  1  0
 17 18  2  0
 18 19  1  0
 19 20  2  0
 20 21  1  0
 20 22  1  0
 22 23  1  0
 23 24  1  0
 23 25  1  0
 23 26  1  0
 22 27  2  0
 16 28  1  0
  5 29  1  0
 29 30  2  0
 30 31  1  0
 30  2  1  0
 28  9  1  0
 28 13  1  0
 27 17  1  0
  3 32  1  0
  4 33  1  0
  6 34  1  0
  6 35  1  0
  7 36  1  0
  7 37  1  0
 10 38  1  0
 11 39  1  0
 12 40  1  0
 14 41  1  0
 18 42  1  0
 19 43  1  0
 27 44  1  0
 29 45  1  0
M  CHG  2  11   1  14   1
M  END
>  <UniqueID>  (1) 
6

>  <SMILES>  (1) 
Fc1ccc(CCOc2c[nH+]cc3[nH+]nc(-c4ccc(Cl)c(C(F)(F)F)c4)n23)cc1F

>  <Energy>  (1) 
94.2244926011548

>  <Genealogy>  (1) 
Fc1ccc(CCOc2c[nH+]cc3[nH+]nc(-c4ccc(Cl)c(C(F)(F)F)c4)n23)cc1F (protonated)
Fc1ccc(CCOc2c[nH+]cc3[nH+]nc(-c4ccc(Cl)c(C(F)(F)F)c4)n23)cc1F (3D coordinates assigned)
Fc1ccc(CCOc2c[nH+]cc3[nH+]nc(-c4ccc(Cl)c(C(F)(F)F)c4)n23)cc1F (optimized conformer: 94.2244926011548 kcal/mol)

$$$$
untitled_line_2
     RDKit          3D

 45 48  0  0  0  0  0  0  0  0999 V2000
   -3.7058   -4.2773   -0.0754 F   0  0  0  0  0  0  0  0  0  0  0  0
   -3.4323   -2.9492   -0.0653 C   0  0  0  0  0  0  0  0  0  0  0  0
   -2.4769   -2.4410    0.8195 C   0  0  0  0  0  0  0  0  0  0  0  0
   -2.1918   -1.0730    0.8316 C   0  0  0  0  0  0  0  0  0  0  0  0
   -2.8638   -0.1999   -0.0379 C   0  0  0  0  0  0  0  0  0  0  0  0
   -2.5249    1.2681   -0.0565 C   0  0  0  0  0  0  0  0  0  0  0  0
   -1.4941    1.5785   -1.1403 C   0  0  0  0  0  0  0  0  0  0  0  0
   -0.2441    0.9778   -0.8092 O   0  0  0  0  0  0  0  0  0  0  0  0
    0.8910    1.0066   -1.6322 C   0  0  0  0  0  0  0  0  0  0  0  0
    0.8775    1.5730   -2.9276 C   0  0  0  0  0  0  0  0  0  0  0  0
    1.9926    1.4959   -3.7181 N   0  0  0  0  0  4  0  0  0  0  0  0
    3.1301    0.8753   -3.2913 C   0  0  0  0  0  0  0  0  0  0  0  0
    3.1387    0.3401   -2.0099 C   0  0  0  0  0  0  0  0  0  0  0  0
    4.1548   -0.3144   -1.4175 N   0  0  0  0  0  0  0  0  0  0  0  0
    3.7074   -0.6344   -0.2098 N   0  0  0  0  0  4  0  0  0  0  0  0
    2.4458   -0.1698   -0.0772 C   0  0  0  0  0  0  0  0  0  0  0  0
    1.6851   -0.2368    1.1862 C   0  0  0  0  0  0  0  0  0  0  0  0
    1.6111   -1.4448    1.8890 C   0  0  0  0  0  0  0  0  0  0  0  0
    0.9493   -1.5057    3.1153 C   0  0  0  0  0  0  0  0  0  0  0  0
    0.3619   -0.3600    3.6626 C   0  0  0  0  0  0  0  0  0  0  0  0
   -0.4646   -0.5136    5.2103 Cl  0  0  0  0  0  0  0  0  0  0  0  0
    0.4379    0.8728    2.9743 C   0  0  0  0  0  0  0  0  0  0  0  0
   -0.1980    2.1197    3.5498 C   0  0  0  0  0  0  0  0  0  0  0  0
   -0.0392    3.2121    2.7141 F   0  0  0  0  0  0  0  0  0  0  0  0
    0.3839    2.4163    4.7689 F   0  0  0  0  0  0  0  0  0  0  0  0
   -1.5529    1.9089    3.7313 F   0  0  0  0  0  0  0  0  0  0  0  0
    1.1180    0.9207    1.7410 C   0  0  0  0  0  0  0  0  0  0  0  0
    2.0597    0.4424   -1.2177 N   0  0  0  0  0  0  0  0  0  0  0  0
   -3.8160   -0.7184   -0.9314 C   0  0  0  0  0  0  0  0  0  0  0  0
   -4.1014   -2.0880   -0.9413 C   0  0  0  0  0  0  0  0  0  0  0  0
   -5.0239   -2.5796   -1.8051 F   0  0  0  0  0  0  0  0  0  0  0  0
   -1.9542   -3.1063    1.4948 H   0  0  0  0  0  0  0  0  0  0  0  0
   -1.4487   -0.6944    1.5162 H   0  0  0  0  0  0  0  0  0  0  0  0
   -2.1318    1.5907    0.9324 H   0  0  0  0  0  0  0  0  0  0  0  0
   -3.4461    1.8595   -0.2511 H   0  0  0  0  0  0  0  0  0  0  0  0
   -1.8585    1.1931   -2.1178 H   0  0  0  0  0  0  0  0  0  0  0  0
   -1.3637    2.6798   -1.2127 H   0  0  0  0  0  0  0  0  0  0  0  0
   -0.0088    2.0560   -3.3158 H   0  0  0  0  0  0  0  0  0  0  0  0
    1.9679    1.9101   -4.6765 H   0  0  0  0  0  0  0  0  0  0  0  0
    3.9990    0.8057   -3.9333 H   0  0  0  0  0  0  0  0  0  0  0  0
    4.2723   -1.1288    0.5160 H   0  0  0  0  0  0  0  0  0  0  0  0
    2.0626   -2.3427    1.4850 H   0  0  0  0  0  0  0  0  0  0  0  0
    0.8928   -2.4497    3.6425 H   0  0  0  0  0  0  0  0  0  0  0  0
    1.2239    1.8592    1.2116 H   0  0  0  0  0  0  0  0  0  0  0  0
   -4.3325   -0.0619   -1.6209 H   0  0  0  0  0  0  0  0  0  0  0  0
  1  2  1  0
  2  3  2  0
  3  4  1  0
  4  5  2  0
  5  6  1  0
  6  7  1  0
  7  8  1  0
  8  9  1  0
  9 10  2  0
 10 11  1  0
 11 12  2  0
 12 13  1  0
 13 14  2  0
 14 15  1  0
 15 16  2  0
 16 17  1  0
 17 18  2  0
 18 19  1  0
 19 20  2  0
 20 21  1  0
 20 22  1  0
 22 23  1  0
 23 24  1  0
 23 25  1  0
 23 26  1  0
 22 27  2  0
 16 28  1  0
  5 29  1  0
 29 30  2  0
 30 31  1  0
 30  2  1  0
 28  9  1  0
 28 13  1  0
 27 17  1  0
  3 32  1  0
  4 33  1  0
  6 34  1  0
  6 35  1  0
  7 36  1  0
  7 37  1  0
 10 38  1  0
 11 39  1  0
 12 40  1  0
 15 41  1  0
 18 42  1  0
 19 43  1  0
 27 44  1  0
 29 45  1  0
M  CHG  2  11   1  15   1
M  END
>  <UniqueID>  (2) 
7

>  <SMILES>  (2) 
Fc1ccc(CCOc2c[nH+]cc3n[nH+]c(-c4ccc(Cl)c(C(F)(F)F)c4)n23)cc1F

>  <Energy>  (2) 
93.88073504102216

>  <Genealogy>  (2) 
Fc1ccc(CCOc2c[nH+]cc3n[nH+]c(-c4ccc(Cl)c(C(F)(F)F)c4)n23)cc1F (protonated)
Fc1ccc(CCOc2c[nH+]cc3n[nH+]c(-c4ccc(Cl)c(C(F)(F)F)c4)n23)cc1F (3D coordinates assigned)
Fc1ccc(CCOc2c[nH+]cc3n[nH+]c(-c4ccc(Cl)c(C(F)(F)F)c4)n23)cc1F (optimized conformer: 93.88073504102216 kcal/mol)

$$$$
untitled_line_2
     RDKit          3D

 44 47  0  0  0  0  0  0  0  0999 V2000
    2.6723    1.5828    2.5678 F   0  0  0  0  0  0  0  0  0  0  0  0
    2.0341    1.7443    1.3826 C   0  0  0  0  0  0  0  0  0  0  0  0
    0.9970    2.6748    1.2699 C   0  0  0  0  0  0  0  0  0  0  0  0
    0.3484    2.8574    0.0447 C   0  0  0  0  0  0  0  0  0  0  0  0
    0.7381    2.1119   -1.0800 C   0  0  0  0  0  0  0  0  0  0  0  0
    0.0199    2.2860   -2.3942 C   0  0  0  0  0  0  0  0  0  0  0  0
   -1.3182    1.5387   -2.4003 C   0  0  0  0  0  0  0  0  0  0  0  0
   -1.1515    0.1838   -1.9850 O   0  0  0  0  0  0  0  0  0  0  0  0
   -0.4760   -0.8117   -2.7047 C   0  0  0  0  0  0  0  0  0  0  0  0
   -0.2099   -0.7078   -4.0887 C   0  0  0  0  0  0  0  0  0  0  0  0
    0.5009   -1.6920   -4.7194 N   0  0  0  0  0  0  0  0  0  0  0  0
    0.9701   -2.7821   -4.0486 C   0  0  0  0  0  0  0  0  0  0  0  0
    0.6930   -2.8750   -2.6903 C   0  0  0  0  0  0  0  0  0  0  0  0
    1.1152   -3.8171   -1.8333 N   0  0  0  0  0  4  0  0  0  0  0  0
    0.6734   -3.4809   -0.6280 N   0  0  0  0  0  0  0  0  0  0  0  0
   -0.0295   -2.3322   -0.7772 C   0  0  0  0  0  0  0  0  0  0  0  0
   -0.6779   -1.6350    0.3492 C   0  0  0  0  0  0  0  0  0  0  0  0
   -2.0307   -1.2808    0.2838 C   0  0  0  0  0  0  0  0  0  0  0  0
   -2.6389   -0.6278    1.3551 C   0  0  0  0  0  0  0  0  0  0  0  0
   -1.9137   -0.3439    2.5168 C   0  0  0  0  0  0  0  0  0  0  0  0
   -2.7488    0.4783    3.8318 Cl  0  0  0  0  0  0  0  0  0  0  0  0
   -0.5567   -0.7272    2.6163 C   0  0  0  0  0  0  0  0  0  0  0  0
    0.2292   -0.4603    3.8821 C   0  0  0  0  0  0  0  0  0  0  0  0
    1.5399   -0.8931    3.7759 F   0  0  0  0  0  0  0  0  0  0  0  0
    0.2403    0.8972    4.1468 F   0  0  0  0  0  0  0  0  0  0  0  0
   -0.3618   -1.1243    4.9416 F   0  0  0  0  0  0  0  0  0  0  0  0
    0.0469   -1.3792    1.5220 C   0  0  0  0  0  0  0  0  0  0  0  0
   -0.0243   -1.9294   -2.0702 N   0  0  0  0  0  0  0  0  0  0  0  0
    1.7668    1.1623   -0.9532 C   0  0  0  0  0  0  0  0  0  0  0  0
    2.4131    0.9823    0.2733 C   0  0  0  0  0  0  0  0  0  0  0  0
    3.4062    0.0659    0.3854 F   0  0  0  0  0  0  0  0  0  0  0  0
    0.6959    3.2566    2.1315 H   0  0  0  0  0  0  0  0  0  0  0  0
   -0.4562    3.5786   -0.0288 H   0  0  0  0  0  0  0  0  0  0  0  0
   -0.1663    3.3665   -2.5771 H   0  0  0  0  0  0  0  0  0  0  0  0
    0.6539    1.9227   -3.2313 H   0  0  0  0  0  0  0  0  0  0  0  0
   -2.0101    2.0363   -1.6880 H   0  0  0  0  0  0  0  0  0  0  0  0
   -1.7912    1.5881   -3.4034 H   0  0  0  0  0  0  0  0  0  0  0  0
   -0.5511    0.1400   -4.6640 H   0  0  0  0  0  0  0  0  0  0  0  0
    1.5494   -3.5390   -4.5604 H   0  0  0  0  0  0  0  0  0  0  0  0
    1.7026   -4.6539   -2.0452 H   0  0  0  0  0  0  0  0  0  0  0  0
   -2.6176   -1.5139   -0.5963 H   0  0  0  0  0  0  0  0  0  0  0  0
   -3.6825   -0.3487    1.2843 H   0  0  0  0  0  0  0  0  0  0  0  0
    1.0859   -1.6813    1.5686 H   0  0  0  0  0  0  0  0  0  0  0  0
    2.0664    0.5615   -1.8030 H   0  0  0  0  0  0  0  0  0  0  0  0
  1  2  1  0
  2  3  2  0
  3  4  1  0
  4  5  2  0
  5  6  1  0
  6  7  1  0
  7  8  1  0
  8  9  1  0
  9 10  2  0
 10 11  1  0
 11 12  2  0
 12 13  1  0
 13 14  2  0
 14 15  1  0
 15 16  2  0
 16 17  1  0
 17 18  2  0
 18 19  1  0
 19 20  2  0
 20 21  1  0
 20 22  1  0
 22 23  1  0
 23 24  1  0
 23 25  1  0
 23 26  1  0
 22 27  2  0
 16 28  1  0
  5 29  1  0
 29 30  2  0
 30 31  1  0
 30  2  1  0
 28  9  1  0
 28 13  1  0
 27 17  1  0
  3 32  1  0
  4 33  1  0
  6 34  1  0
  6 35  1  0
  7 36  1  0
  7 37  1  0
 10 38  1  0
 12 39  1  0
 14 40  1  0
 18 41  1  0
 19 42  1  0
 27 43  1  0
 29 44  1  0
M  CHG  1  14   1
M  END
>  <UniqueID>  (3) 
8

>  <SMILES>  (3) 
Fc1ccc(CCOc2cncc3[nH+]nc(-c4ccc(Cl)c(C(F)(F)F)c4)n23)cc1F

>  <Energy>  (3) 
94.24669654545266

>  <Genealogy>  (3) 
Fc1ccc(CCOc2cncc3[nH+]nc(-c4ccc(Cl)c(C(F)(F)F)c4)n23)cc1F (protonated)
Fc1ccc(CCOc2cncc3[nH+]nc(-c4ccc(Cl)c(C(F)(F)F)c4)n23)cc1F (3D coordinates assigned)
Fc1ccc(CCOc2cncc3[nH+]nc(-c4ccc(Cl)c(C(F)(F)F)c4)n23)cc1F (optimized conformer: 94.24669654545266 kcal/mol)

$$$$
untitled_line_2
     RDKit          3D

 44 47  0  0  0  0  0  0  0  0999 V2000
   -0.1785    4.4091   -3.2091 F   0  0  0  0  0  0  0  0  0  0  0  0
   -0.7858    3.7738   -2.1765 C   0  0  0  0  0  0  0  0  0  0  0  0
   -0.2085    3.8029   -0.9038 C   0  0  0  0  0  0  0  0  0  0  0  0
   -0.8274    3.1436    0.1626 C   0  0  0  0  0  0  0  0  0  0  0  0
   -2.0340    2.4519   -0.0377 C   0  0  0  0  0  0  0  0  0  0  0  0
   -2.6978    1.7305    1.1060 C   0  0  0  0  0  0  0  0  0  0  0  0
   -2.5181    0.2107    1.0011 C   0  0  0  0  0  0  0  0  0  0  0  0
   -1.1406   -0.1554    0.9063 O   0  0  0  0  0  0  0  0  0  0  0  0
   -0.2225   -0.1790    1.9683 C   0  0  0  0  0  0  0  0  0  0  0  0
   -0.5739    0.1522    3.2976 C   0  0  0  0  0  0  0  0  0  0  0  0
    0.3635    0.0693    4.2922 N   0  0  0  0  0  4  0  0  0  0  0  0
    1.6388   -0.3449    4.0406 C   0  0  0  0  0  0  0  0  0  0  0  0
    1.9704   -0.6717    2.7327 C   0  0  0  0  0  0  0  0  0  0  0  0
    3.1459   -1.1562    2.2953 N   0  0  0  0  0  0  0  0  0  0  0  0
    2.9950   -1.3663    0.9918 N   0  0  0  0  0  0  0  0  0  0  0  0
    1.7351   -1.0008    0.6630 C   0  0  0  0  0  0  0  0  0  0  0  0
    1.2042   -1.0849   -0.7084 C   0  0  0  0  0  0  0  0  0  0  0  0
    0.6917    0.0534   -1.3387 C   0  0  0  0  0  0  0  0  0  0  0  0
    0.2076   -0.0235   -2.6438 C   0  0  0  0  0  0  0  0  0  0  0  0
    0.2415   -1.2349   -3.3420 C   0  0  0  0  0  0  0  0  0  0  0  0
   -0.3917   -1.2587   -4.9856 Cl  0  0  0  0  0  0  0  0  0  0  0  0
    0.7803   -2.3906   -2.7304 C   0  0  0  0  0  0  0  0  0  0  0  0
    0.8346   -3.7058   -3.4777 C   0  0  0  0  0  0  0  0  0  0  0  0
    1.5967   -3.5582   -4.6224 F   0  0  0  0  0  0  0  0  0  0  0  0
    1.3956   -4.7122   -2.7100 F   0  0  0  0  0  0  0  0  0  0  0  0
   -0.4458   -4.0925   -3.8301 F   0  0  0  0  0  0  0  0  0  0  0  0
    1.2680   -2.2960   -1.4110 C   0  0  0  0  0  0  0  0  0  0  0  0
    1.0663   -0.5638    1.7511 N   0  0  0  0  0  0  0  0  0  0  0  0
   -2.6074    2.4252   -1.3199 C   0  0  0  0  0  0  0  0  0  0  0  0
   -1.9855    3.0856   -2.3843 C   0  0  0  0  0  0  0  0  0  0  0  0
   -2.5440    3.0512   -3.6195 F   0  0  0  0  0  0  0  0  0  0  0  0
    0.7226    4.3311   -0.7436 H   0  0  0  0  0  0  0  0  0  0  0  0
   -0.3622    3.1660    1.1403 H   0  0  0  0  0  0  0  0  0  0  0  0
   -3.7846    1.9636    1.1019 H   0  0  0  0  0  0  0  0  0  0  0  0
   -2.2997    2.0962    2.0752 H   0  0  0  0  0  0  0  0  0  0  0  0
   -2.9977   -0.2990    1.8636 H   0  0  0  0  0  0  0  0  0  0  0  0
   -3.0351   -0.1487    0.0862 H   0  0  0  0  0  0  0  0  0  0  0  0
   -1.5795    0.4527    3.5534 H   0  0  0  0  0  0  0  0  0  0  0  0
    0.0915    0.3125    5.2708 H   0  0  0  0  0  0  0  0  0  0  0  0
    2.3632   -0.4302    4.8407 H   0  0  0  0  0  0  0  0  0  0  0  0
    0.6800    1.0026   -0.8218 H   0  0  0  0  0  0  0  0  0  0  0  0
   -0.1890    0.8646   -3.1178 H   0  0  0  0  0  0  0  0  0  0  0  0
    1.6875   -3.1633   -0.9165 H   0  0  0  0  0  0  0  0  0  0  0  0
   -3.5342    1.8923   -1.4927 H   0  0  0  0  0  0  0  0  0  0  0  0
  1  2  1  0
  2  3  2  0
  3  4  1  0
  4  5  2  0
  5  6  1  0
  6  7  1  0
  7  8  1  0
  8  9  1  0
  9 10  2  0
 10 11  1  0
 11 12  2  0
 12 13  1  0
 13 14  2  0
 14 15  1  0
 15 16  2  0
 16 17  1  0
 17 18  2  0
 18 19  1  0
 19 20  2  0
 20 21  1  0
 20 22  1  0
 22 23  1  0
 23 24  1  0
 23 25  1  0
 23 26  1  0
 22 27  2  0
 16 28  1  0
  5 29  1  0
 29 30  2  0
 30 31  1  0
 30  2  1  0
 28  9  1  0
 28 13  1  0
 27 17  1  0
  3 32  1  0
  4 33  1  0
  6 34  1  0
  6 35  1  0
  7 36  1  0
  7 37  1  0
 10 38  1  0
 11 39  1  0
 12 40  1  0
 18 41  1  0
 19 42  1  0
 27 43  1  0
 29 44  1  0
M  CHG  1  11   1
M  END
>  <UniqueID>  (4) 
9

>  <SMILES>  (4) 
Fc1ccc(CCOc2c[nH+]cc3nnc(-c4ccc(Cl)c(C(F)(F)F)c4)n23)cc1F

>  <Energy>  (4) 
94.56892873832773

>  <Genealogy>  (4) 
Fc1ccc(CCOc2c[nH+]cc3nnc(-c4ccc(Cl)c(C(F)(F)F)c4)n23)cc1F (protonated)
Fc1ccc(CCOc2c[nH+]cc3nnc(-c4ccc(Cl)c(C(F)(F)F)c4)n23)cc1F (3D coordinates assigned)
Fc1ccc(CCOc2c[nH+]cc3nnc(-c4ccc(Cl)c(C(F)(F)F)c4)n23)cc1F (optimized conformer: 94.56892873832773 kcal/mol)

$$$$
untitled_line_2
     RDKit          3D

 43 46  0  0  0  0  0  0  0  0999 V2000
   -4.8218   -4.3674    2.7330 F   0  0  0  0  0  0  0  0  0  0  0  0
   -3.9938   -3.4529    2.1701 C   0  0  0  0  0  0  0  0  0  0  0  0
   -2.9104   -2.9521    2.8981 C   0  0  0  0  0  0  0  0  0  0  0  0
   -2.0530   -2.0102    2.3214 C   0  0  0  0  0  0  0  0  0  0  0  0
   -2.2803   -1.5552    1.0119 C   0  0  0  0  0  0  0  0  0  0  0  0
   -1.3398   -0.5666    0.3783 C   0  0  0  0  0  0  0  0  0  0  0  0
   -0.2078   -1.2858   -0.3493 C   0  0  0  0  0  0  0  0  0  0  0  0
    0.6631   -0.3185   -0.9255 O   0  0  0  0  0  0  0  0  0  0  0  0
    1.8285   -0.6226   -1.6414 C   0  0  0  0  0  0  0  0  0  0  0  0
    2.2338   -1.9493   -1.9112 C   0  0  0  0  0  0  0  0  0  0  0  0
    3.3507   -2.1772   -2.6675 N   0  0  0  0  0  0  0  0  0  0  0  0
    4.0948   -1.1546   -3.1772 C   0  0  0  0  0  0  0  0  0  0  0  0
    3.6915    0.1445   -2.8951 C   0  0  0  0  0  0  0  0  0  0  0  0
    4.2616    1.2810   -3.3323 N   0  0  0  0  0  0  0  0  0  0  0  0
    3.5319    2.2738   -2.8338 N   0  0  0  0  0  0  0  0  0  0  0  0
    2.5373    1.7225   -2.1010 C   0  0  0  0  0  0  0  0  0  0  0  0
    1.5461    2.5219   -1.3570 C   0  0  0  0  0  0  0  0  0  0  0  0
    0.8592    3.5537   -2.0058 C   0  0  0  0  0  0  0  0  0  0  0  0
   -0.0654    4.3300   -1.3071 C   0  0  0  0  0  0  0  0  0  0  0  0
   -0.3063    4.0966    0.0511 C   0  0  0  0  0  0  0  0  0  0  0  0
   -1.4833    5.1200    0.8697 Cl  0  0  0  0  0  0  0  0  0  0  0  0
    0.3948    3.0733    0.7295 C   0  0  0  0  0  0  0  0  0  0  0  0
    0.1607    2.8225    2.2040 C   0  0  0  0  0  0  0  0  0  0  0  0
   -1.1759    2.5417    2.4233 F   0  0  0  0  0  0  0  0  0  0  0  0
    0.9082    1.7543    2.6701 F   0  0  0  0  0  0  0  0  0  0  0  0
    0.5130    3.9482    2.9260 F   0  0  0  0  0  0  0  0  0  0  0  0
    1.3315    2.3024    0.0123 C   0  0  0  0  0  0  0  0  0  0  0  0
    2.6139    0.3751   -2.1345 N   0  0  0  0  0  0  0  0  0  0  0  0
   -3.3629   -2.0722    0.2811 C   0  0  0  0  0  0  0  0  0  0  0  0
   -4.2188   -3.0145    0.8609 C   0  0  0  0  0  0  0  0  0  0  0  0
   -5.2644   -3.5049    0.1503 F   0  0  0  0  0  0  0  0  0  0  0  0
   -2.7323   -3.2957    3.9090 H   0  0  0  0  0  0  0  0  0  0  0  0
   -1.2126   -1.6366    2.8934 H   0  0  0  0  0  0  0  0  0  0  0  0
   -1.8915    0.0783   -0.3404 H   0  0  0  0  0  0  0  0  0  0  0  0
   -0.9100    0.0999    1.1567 H   0  0  0  0  0  0  0  0  0  0  0  0
   -0.6293   -1.9311   -1.1510 H   0  0  0  0  0  0  0  0  0  0  0  0
    0.3594   -1.9121    0.3740 H   0  0  0  0  0  0  0  0  0  0  0  0
    1.6684   -2.7940   -1.5436 H   0  0  0  0  0  0  0  0  0  0  0  0
    4.9663   -1.3555   -3.7860 H   0  0  0  0  0  0  0  0  0  0  0  0
    1.0309    3.7504   -3.0572 H   0  0  0  0  0  0  0  0  0  0  0  0
   -0.5964    5.1187   -1.8251 H   0  0  0  0  0  0  0  0  0  0  0  0
    1.9052    1.5328    0.5134 H   0  0  0  0  0  0  0  0  0  0  0  0
   -3.5413   -1.7460   -0.7362 H   0  0  0  0  0  0  0  0  0  0  0  0
  1  2  1  0
  2  3  2  0
  3  4  1  0
  4  5  2  0
  5  6  1  0
  6  7  1  0
  7  8  1  0
  8  9  1  0
  9 10  2  0
 10 11  1  0
 11 12  2  0
 12 13  1  0
 13 14  2  0
 14 15  1  0
 15 16  2  0
 16 17  1  0
 17 18  2  0
 18 19  1  0
 19 20  2  0
 20 21  1  0
 20 22  1  0
 22 23  1  0
 23 24  1  0
 23 25  1  0
 23 26  1  0
 22 27  2  0
 16 28  1  0
  5 29  1  0
 29 30  2  0
 30 31  1  0
 30  2  1  0
 28  9  1  0
 28 13  1  0
 27 17  1  0
  3 32  1  0
  4 33  1  0
  6 34  1  0
  6 35  1  0
  7 36  1  0
  7 37  1  0
 10 38  1  0
 12 39  1  0
 18 40  1  0
 19 41  1  0
 27 42  1  0
 29 43  1  0
M  END
>  <UniqueID>  (5) 
10

>  <SMILES>  (5) 
Fc1ccc(CCOc2cncc3nnc(-c4ccc(Cl)c(C(F)(F)F)c4)n23)cc1F

>  <Energy>  (5) 
94.2424925882511

>  <Genealogy>  (5) 
Fc1ccc(CCOc2cncc3nnc(-c4ccc(Cl)c(C(F)(F)F)c4)n23)cc1F (3D coordinates assigned)
Fc1ccc(CCOc2cncc3nnc(-c4ccc(Cl)c(C(F)(F)F)c4)n23)cc1F (optimized conformer: 94.2424925882511 kcal/mol)

$$$$
