untitled_line_4
     RDKit          3D

 46 50  0  0  0  0  0  0  0  0999 V2000
    4.8334    1.9513   -2.5515 F   0  0  0  0  0  0  0  0  0  0  0  0
    3.6343    1.3183   -2.5662 C   0  0  0  0  0  0  0  0  0  0  0  0
    3.4068    0.2761   -3.4701 C   0  0  0  0  0  0  0  0  0  0  0  0
    2.1726   -0.3814   -3.4867 C   0  0  0  0  0  0  0  0  0  0  0  0
    1.1518    0.0077   -2.6035 C   0  0  0  0  0  0  0  0  0  0  0  0
   -0.1639   -0.7257   -2.5904 C   0  0  0  0  0  0  0  0  0  0  0  0
   -0.1148   -1.9190   -1.6381 C   0  0  0  0  0  0  0  0  0  0  0  0
   -0.0579   -1.4617   -0.2889 O   0  0  0  0  0  0  0  0  0  0  0  0
    0.0140   -2.3051    0.8291 C   0  0  0  0  0  0  0  0  0  0  0  0
    0.2151   -3.7002    0.7190 C   0  0  0  0  0  0  0  0  0  0  0  0
    0.3452   -4.4617    1.8494 N   0  0  0  0  0  4  0  0  0  0  0  0
    0.2903   -3.9074    3.0949 C   0  0  0  0  0  0  0  0  0  0  0  0
    0.0734   -2.5390    3.1893 C   0  0  0  0  0  0  0  0  0  0  0  0
   -0.0006   -1.8095    4.3161 N   0  0  0  0  0  0  0  0  0  0  0  0
   -0.2206   -0.5574    3.9294 N   0  0  0  0  0  0  0  0  0  0  0  0
   -0.2788   -0.5508    2.5780 C   0  0  0  0  0  0  0  0  0  0  0  0
   -0.5836    0.6634    1.7947 C   0  0  0  0  0  0  0  0  0  0  0  0
    0.1958    1.8133    1.9941 C   0  0  0  0  0  0  0  0  0  0  0  0
   -0.0884    2.9936    1.3017 C   0  0  0  0  0  0  0  0  0  0  0  0
   -1.1610    3.0461    0.4090 C   0  0  0  0  0  0  0  0  0  0  0  0
   -1.9647    1.9149    0.2120 C   0  0  0  0  0  0  0  0  0  0  0  0
   -3.0524    1.9468   -0.6703 C   0  0  0  0  0  0  0  0  0  0  0  0
   -3.8522    0.8141   -0.8285 C   0  0  0  0  0  0  0  0  0  0  0  0
   -3.5627   -0.3388   -0.0969 C   0  0  0  0  0  0  0  0  0  0  0  0
   -2.5018   -0.3600    0.7523 N   0  0  0  0  0  0  0  0  0  0  0  0
   -1.6869    0.7199    0.9175 C   0  0  0  0  0  0  0  0  0  0  0  0
   -0.0822   -1.7935    2.0879 N   0  0  0  0  0  0  0  0  0  0  0  0
    1.3924    1.0469   -1.6916 C   0  0  0  0  0  0  0  0  0  0  0  0
    2.6271    1.7023   -1.6750 C   0  0  0  0  0  0  0  0  0  0  0  0
    2.8469    2.7064   -0.7904 F   0  0  0  0  0  0  0  0  0  0  0  0
    4.1880   -0.0262   -4.1556 H   0  0  0  0  0  0  0  0  0  0  0  0
    2.0133   -1.1942   -4.1844 H   0  0  0  0  0  0  0  0  0  0  0  0
   -0.9865   -0.0408   -2.2880 H   0  0  0  0  0  0  0  0  0  0  0  0
   -0.4010   -1.0880   -3.6145 H   0  0  0  0  0  0  0  0  0  0  0  0
   -1.0324   -2.5305   -1.7778 H   0  0  0  0  0  0  0  0  0  0  0  0
    0.7750   -2.5442   -1.8708 H   0  0  0  0  0  0  0  0  0  0  0  0
    0.2839   -4.1792   -0.2480 H   0  0  0  0  0  0  0  0  0  0  0  0
    0.5020   -5.4901    1.7564 H   0  0  0  0  0  0  0  0  0  0  0  0
    0.4105   -4.5183    3.9806 H   0  0  0  0  0  0  0  0  0  0  0  0
    1.0325    1.7937    2.6819 H   0  0  0  0  0  0  0  0  0  0  0  0
    0.5276    3.8700    1.4558 H   0  0  0  0  0  0  0  0  0  0  0  0
   -1.3638    3.9679   -0.1228 H   0  0  0  0  0  0  0  0  0  0  0  0
   -3.2854    2.8445   -1.2304 H   0  0  0  0  0  0  0  0  0  0  0  0
   -4.6948    0.8317   -1.5074 H   0  0  0  0  0  0  0  0  0  0  0  0
   -4.1809   -1.2197   -0.2057 H   0  0  0  0  0  0  0  0  0  0  0  0
    0.6251    1.3434   -0.9934 H   0  0  0  0  0  0  0  0  0  0  0  0
  1  2  1  0
  2  3  2  0
  3  4  1  0
  4  5  2  0
  5  6  1  0
  6  7  1  0
  7  8  1  0
  8  9  1  0
  9 10  2  0
 10 11  1  0
 11 12  2  0
 12 13  1  0
 13 14  2  0
 14 15  1  0
 15 16  2  0
 16 17  1  0
 17 18  2  0
 18 19  1  0
 19 20  2  0
 20 21  1  0
 21 22  2  0
 22 23  1  0
 23 24  2  0
 24 25  1  0
 25 26  2  0
 16 27  1  0
  5 28  1  0
 28 29  2  0
 29 30  1  0
 29  2  1  0
 27  9  1  0
 27 13  1  0
 26 17  1  0
 26 21  1  0
  3 31  1  0
  4 32  1  0
  6 33  1  0
  6 34  1  0
  7 35  1  0
  7 36  1  0
 10 37  1  0
 11 38  1  0
 12 39  1  0
 18 40  1  0
 19 41  1  0
 20 42  1  0
 22 43  1  0
 23 44  1  0
 24 45  1  0
 28 46  1  0
M  CHG  1  11   1
M  END
>  <UniqueID>  (1) 
16

>  <SMILES>  (1) 
Fc1ccc(CCOc2c[nH+]cc3nnc(-c4cccc5cccnc45)n23)cc1F

>  <Energy>  (1) 
98.45339611073241

>  <Genealogy>  (1) 
Fc1ccc(CCOc2c[nH+]cc3nnc(-c4cccc5cccnc45)n23)cc1F (protonated)
Fc1ccc(CCOc2c[nH+]cc3nnc(-c4cccc5cccnc45)n23)cc1F (3D coordinates assigned)
Fc1ccc(CCOc2c[nH+]cc3nnc(-c4cccc5cccnc45)n23)cc1F (optimized conformer: 98.45339611073241 kcal/mol)

$$$$
untitled_line_4
     RDKit          3D

 47 51  0  0  0  0  0  0  0  0999 V2000
    7.2790    0.6551   -1.3273 F   0  0  0  0  0  0  0  0  0  0  0  0
    5.9827    0.5256   -0.9510 C   0  0  0  0  0  0  0  0  0  0  0  0
    5.4793    1.3048    0.0949 C   0  0  0  0  0  0  0  0  0  0  0  0
    4.1429    1.1759    0.4854 C   0  0  0  0  0  0  0  0  0  0  0  0
    3.3018    0.2568   -0.1636 C   0  0  0  0  0  0  0  0  0  0  0  0
    1.8549    0.1413    0.2326 C   0  0  0  0  0  0  0  0  0  0  0  0
    0.9959    1.1160   -0.5682 C   0  0  0  0  0  0  0  0  0  0  0  0
   -0.3616    0.9775   -0.1643 O   0  0  0  0  0  0  0  0  0  0  0  0
   -1.4252    1.7346   -0.6733 C   0  0  0  0  0  0  0  0  0  0  0  0
   -1.2611    2.7064   -1.6861 C   0  0  0  0  0  0  0  0  0  0  0  0
   -2.3521    3.3860   -2.1574 N   0  0  0  0  0  0  0  0  0  0  0  0
   -3.6078    3.1540   -1.6771 C   0  0  0  0  0  0  0  0  0  0  0  0
   -3.7513    2.1997   -0.6772 C   0  0  0  0  0  0  0  0  0  0  0  0
   -4.8840    1.8008   -0.0773 N   0  0  0  0  0  4  0  0  0  0  0  0
   -4.5549    0.8660    0.8067 N   0  0  0  0  0  0  0  0  0  0  0  0
   -3.2112    0.7111    0.7242 C   0  0  0  0  0  0  0  0  0  0  0  0
   -2.4408   -0.2092    1.5830 C   0  0  0  0  0  0  0  0  0  0  0  0
   -1.4980    0.3347    2.4698 C   0  0  0  0  0  0  0  0  0  0  0  0
   -0.7510   -0.4915    3.3096 C   0  0  0  0  0  0  0  0  0  0  0  0
   -0.9401   -1.8726    3.2858 C   0  0  0  0  0  0  0  0  0  0  0  0
   -1.8798   -2.4390    2.4139 C   0  0  0  0  0  0  0  0  0  0  0  0
   -2.0728   -3.8253    2.3795 C   0  0  0  0  0  0  0  0  0  0  0  0
   -2.9997   -4.3757    1.4973 C   0  0  0  0  0  0  0  0  0  0  0  0
   -3.7241   -3.5372    0.6510 C   0  0  0  0  0  0  0  0  0  0  0  0
   -3.5347   -2.1897    0.6866 N   0  0  0  0  0  4  0  0  0  0  0  0
   -2.6412   -1.6114    1.5496 C   0  0  0  0  0  0  0  0  0  0  0  0
   -2.6873    1.5419   -0.2037 N   0  0  0  0  0  0  0  0  0  0  0  0
    3.8103   -0.5134   -1.2227 C   0  0  0  0  0  0  0  0  0  0  0  0
    5.1477   -0.3820   -1.6110 C   0  0  0  0  0  0  0  0  0  0  0  0
    5.6319   -1.1330   -2.6311 F   0  0  0  0  0  0  0  0  0  0  0  0
    6.1233    2.0120    0.6017 H   0  0  0  0  0  0  0  0  0  0  0  0
    3.7633    1.7920    1.2912 H   0  0  0  0  0  0  0  0  0  0  0  0
    1.4942   -0.8966    0.0602 H   0  0  0  0  0  0  0  0  0  0  0  0
    1.7392    0.3535    1.3183 H   0  0  0  0  0  0  0  0  0  0  0  0
    1.0857    0.8893   -1.6532 H   0  0  0  0  0  0  0  0  0  0  0  0
    1.3365    2.1570   -0.3754 H   0  0  0  0  0  0  0  0  0  0  0  0
   -0.2880    2.9199   -2.1053 H   0  0  0  0  0  0  0  0  0  0  0  0
   -4.4585    3.6961   -2.0679 H   0  0  0  0  0  0  0  0  0  0  0  0
   -5.8538    2.1441   -0.2549 H   0  0  0  0  0  0  0  0  0  0  0  0
   -1.3408    1.4060    2.5103 H   0  0  0  0  0  0  0  0  0  0  0  0
   -0.0238   -0.0582    3.9841 H   0  0  0  0  0  0  0  0  0  0  0  0
   -0.3515   -2.4978    3.9467 H   0  0  0  0  0  0  0  0  0  0  0  0
   -1.5064   -4.4807    3.0305 H   0  0  0  0  0  0  0  0  0  0  0  0
   -3.1524   -5.4468    1.4649 H   0  0  0  0  0  0  0  0  0  0  0  0
   -4.4389   -3.9642   -0.0413 H   0  0  0  0  0  0  0  0  0  0  0  0
   -4.0927   -1.6120    0.0201 H   0  0  0  0  0  0  0  0  0  0  0  0
    3.1704   -1.2128   -1.7466 H   0  0  0  0  0  0  0  0  0  0  0  0
  1  2  1  0
  2  3  2  0
  3  4  1  0
  4  5  2  0
  5  6  1  0
  6  7  1  0
  7  8  1  0
  8  9  1  0
  9 10  2  0
 10 11  1  0
 11 12  2  0
 12 13  1  0
 13 14  2  0
 14 15  1  0
 15 16  2  0
 16 17  1  0
 17 18  2  0
 18 19  1  0
 19 20  2  0
 20 21  1  0
 21 22  2  0
 22 23  1  0
 23 24  2  0
 24 25  1  0
 25 26  2  0
 16 27  1  0
  5 28  1  0
 28 29  2  0
 29 30  1  0
 29  2  1  0
 27  9  1  0
 27 13  1  0
 26 17  1  0
 26 21  1  0
  3 31  1  0
  4 32  1  0
  6 33  1  0
  6 34  1  0
  7 35  1  0
  7 36  1  0
 10 37  1  0
 12 38  1  0
 14 39  1  0
 18 40  1  0
 19 41  1  0
 20 42  1  0
 22 43  1  0
 23 44  1  0
 24 45  1  0
 25 46  1  0
 28 47  1  0
M  CHG  2  14   1  25   1
M  END
>  <UniqueID>  (2) 
17

>  <SMILES>  (2) 
Fc1ccc(CCOc2cncc3[nH+]nc(-c4cccc5ccc[nH+]c45)n23)cc1F

>  <Energy>  (2) 
104.63705343742204

>  <Genealogy>  (2) 
Fc1ccc(CCOc2cncc3[nH+]nc(-c4cccc5ccc[nH+]c45)n23)cc1F (protonated)
Fc1ccc(CCOc2cncc3[nH+]nc(-c4cccc5ccc[nH+]c45)n23)cc1F (3D coordinates assigned)
Fc1ccc(CCOc2cncc3[nH+]nc(-c4cccc5ccc[nH+]c45)n23)cc1F (optimized conformer: 104.63705343742204 kcal/mol)

$$$$
untitled_line_4
     RDKit          3D

 47 51  0  0  0  0  0  0  0  0999 V2000
   -6.7857    1.8637    1.8579 F   0  0  0  0  0  0  0  0  0  0  0  0
   -5.5257    1.4080    1.6492 C   0  0  0  0  0  0  0  0  0  0  0  0
   -4.4351    2.2613    1.8420 C   0  0  0  0  0  0  0  0  0  0  0  0
   -3.1341    1.7964    1.6266 C   0  0  0  0  0  0  0  0  0  0  0  0
   -2.9152    0.4685    1.2247 C   0  0  0  0  0  0  0  0  0  0  0  0
   -1.5189   -0.0244    0.9603 C   0  0  0  0  0  0  0  0  0  0  0  0
   -1.1159    0.2421   -0.4873 C   0  0  0  0  0  0  0  0  0  0  0  0
    0.1876   -0.2834   -0.7093 O   0  0  0  0  0  0  0  0  0  0  0  0
    0.8490   -0.2776   -1.9445 C   0  0  0  0  0  0  0  0  0  0  0  0
    0.3357    0.3758   -3.0870 C   0  0  0  0  0  0  0  0  0  0  0  0
    1.0509    0.3655   -4.2554 N   0  0  0  0  0  4  0  0  0  0  0  0
    2.2608   -0.2606   -4.3490 C   0  0  0  0  0  0  0  0  0  0  0  0
    2.7484   -0.9056   -3.2194 C   0  0  0  0  0  0  0  0  0  0  0  0
    3.9195   -1.5559   -3.0969 N   0  0  0  0  0  0  0  0  0  0  0  0
    3.9667   -1.9970   -1.8431 N   0  0  0  0  0  0  0  0  0  0  0  0
    2.8213   -1.6141   -1.2340 C   0  0  0  0  0  0  0  0  0  0  0  0
    2.5099   -1.9093    0.1784 C   0  0  0  0  0  0  0  0  0  0  0  0
    3.3669   -1.4010    1.1656 C   0  0  0  0  0  0  0  0  0  0  0  0
    3.0903   -1.6000    2.5188 C   0  0  0  0  0  0  0  0  0  0  0  0
    1.9577   -2.3147    2.9075 C   0  0  0  0  0  0  0  0  0  0  0  0
    1.1007   -2.8551    1.9395 C   0  0  0  0  0  0  0  0  0  0  0  0
   -0.0334   -3.5831    2.3193 C   0  0  0  0  0  0  0  0  0  0  0  0
   -0.8682   -4.1264    1.3453 C   0  0  0  0  0  0  0  0  0  0  0  0
   -0.5573   -3.9485   -0.0022 C   0  0  0  0  0  0  0  0  0  0  0  0
    0.5471   -3.2425   -0.3681 N   0  0  0  0  0  4  0  0  0  0  0  0
    1.3773   -2.6723    0.5610 C   0  0  0  0  0  0  0  0  0  0  0  0
    2.0442   -0.9119   -2.0827 N   0  0  0  0  0  0  0  0  0  0  0  0
   -4.0160   -0.3800    1.0199 C   0  0  0  0  0  0  0  0  0  0  0  0
   -5.3163    0.0880    1.2363 C   0  0  0  0  0  0  0  0  0  0  0  0
   -6.3732   -0.7389    1.0413 F   0  0  0  0  0  0  0  0  0  0  0  0
   -4.5970    3.2846    2.1554 H   0  0  0  0  0  0  0  0  0  0  0  0
   -2.2984    2.4700    1.7712 H   0  0  0  0  0  0  0  0  0  0  0  0
   -1.4583   -1.1152    1.1648 H   0  0  0  0  0  0  0  0  0  0  0  0
   -0.8000    0.4789    1.6434 H   0  0  0  0  0  0  0  0  0  0  0  0
   -1.8371   -0.2565   -1.1717 H   0  0  0  0  0  0  0  0  0  0  0  0
   -1.1146    1.3372   -0.6798 H   0  0  0  0  0  0  0  0  0  0  0  0
   -0.6127    0.8950   -3.0517 H   0  0  0  0  0  0  0  0  0  0  0  0
    0.6655    0.8556   -5.0933 H   0  0  0  0  0  0  0  0  0  0  0  0
    2.8219   -0.2503   -5.2749 H   0  0  0  0  0  0  0  0  0  0  0  0
    4.2424   -0.8268    0.8863 H   0  0  0  0  0  0  0  0  0  0  0  0
    3.7531   -1.1905    3.2702 H   0  0  0  0  0  0  0  0  0  0  0  0
    1.7555   -2.4515    3.9632 H   0  0  0  0  0  0  0  0  0  0  0  0
   -0.2728   -3.7314    3.3655 H   0  0  0  0  0  0  0  0  0  0  0  0
   -1.7476   -4.6881    1.6323 H   0  0  0  0  0  0  0  0  0  0  0  0
   -1.1992   -4.3789   -0.7605 H   0  0  0  0  0  0  0  0  0  0  0  0
    0.7413   -3.1549   -1.3899 H   0  0  0  0  0  0  0  0  0  0  0  0
   -3.8657   -1.4015    0.6921 H   0  0  0  0  0  0  0  0  0  0  0  0
  1  2  1  0
  2  3  2  0
  3  4  1  0
  4  5  2  0
  5  6  1  0
  6  7  1  0
  7  8  1  0
  8  9  1  0
  9 10  2  0
 10 11  1  0
 11 12  2  0
 12 13  1  0
 13 14  2  0
 14 15  1  0
 15 16  2  0
 16 17  1  0
 17 18  2  0
 18 19  1  0
 19 20  2  0
 20 21  1  0
 21 22  2  0
 22 23  1  0
 23 24  2  0
 24 25  1  0
 25 26  2  0
 16 27  1  0
  5 28  1  0
 28 29  2  0
 29 30  1  0
 29  2  1  0
 27  9  1  0
 27 13  1  0
 26 17  1  0
 26 21  1  0
  3 31  1  0
  4 32  1  0
  6 33  1  0
  6 34  1  0
  7 35  1  0
  7 36  1  0
 10 37  1  0
 11 38  1  0
 12 39  1  0
 18 40  1  0
 19 41  1  0
 20 42  1  0
 22 43  1  0
 23 44  1  0
 24 45  1  0
 25 46  1  0
 28 47  1  0
M  CHG  2  11   1  25   1
M  END
>  <UniqueID>  (3) 
18

>  <SMILES>  (3) 
Fc1ccc(CCOc2c[nH+]cc3nnc(-c4cccc5ccc[nH+]c45)n23)cc1F

>  <Energy>  (3) 
101.31334740080186

>  <Genealogy>  (3) 
Fc1ccc(CCOc2c[nH+]cc3nnc(-c4cccc5ccc[nH+]c45)n23)cc1F (protonated)
Fc1ccc(CCOc2c[nH+]cc3nnc(-c4cccc5ccc[nH+]c45)n23)cc1F (3D coordinates assigned)
Fc1ccc(CCOc2c[nH+]cc3nnc(-c4cccc5ccc[nH+]c45)n23)cc1F (optimized conformer: 101.31334740080186 kcal/mol)

$$$$
untitled_line_4
     RDKit          3D

 47 51  0  0  0  0  0  0  0  0999 V2000
   -2.5858   -1.2526   -3.8617 F   0  0  0  0  0  0  0  0  0  0  0  0
   -1.5957   -1.6978   -3.0493 C   0  0  0  0  0  0  0  0  0  0  0  0
   -1.9114   -2.2539   -1.8064 C   0  0  0  0  0  0  0  0  0  0  0  0
   -0.8937   -2.7049   -0.9610 C   0  0  0  0  0  0  0  0  0  0  0  0
    0.4505   -2.6152   -1.3608 C   0  0  0  0  0  0  0  0  0  0  0  0
    1.5524   -3.0631   -0.4347 C   0  0  0  0  0  0  0  0  0  0  0  0
    2.1984   -1.8678    0.2728 C   0  0  0  0  0  0  0  0  0  0  0  0
    1.2111   -1.0505    0.8993 O   0  0  0  0  0  0  0  0  0  0  0  0
    0.4776   -1.3853    2.0468 C   0  0  0  0  0  0  0  0  0  0  0  0
    0.8299   -2.4544    2.9007 C   0  0  0  0  0  0  0  0  0  0  0  0
    0.0549   -2.7371    3.9939 N   0  0  0  0  0  4  0  0  0  0  0  0
   -1.0673   -2.0158    4.2825 C   0  0  0  0  0  0  0  0  0  0  0  0
   -1.4018   -0.9661    3.4371 C   0  0  0  0  0  0  0  0  0  0  0  0
   -2.4963   -0.1849    3.5125 N   0  0  0  0  0  0  0  0  0  0  0  0
   -2.4178    0.6294    2.4667 N   0  0  0  0  0  4  0  0  0  0  0  0
   -1.2893    0.3451    1.7818 C   0  0  0  0  0  0  0  0  0  0  0  0
   -0.9045    1.0068    0.5193 C   0  0  0  0  0  0  0  0  0  0  0  0
   -1.7895    0.9666   -0.5680 C   0  0  0  0  0  0  0  0  0  0  0  0
   -1.4386    1.5463   -1.7899 C   0  0  0  0  0  0  0  0  0  0  0  0
   -0.2050    2.1830   -1.9393 C   0  0  0  0  0  0  0  0  0  0  0  0
    0.6785    2.2622   -0.8543 C   0  0  0  0  0  0  0  0  0  0  0  0
    1.9129    2.9138   -0.9732 C   0  0  0  0  0  0  0  0  0  0  0  0
    2.7653    2.9938    0.1292 C   0  0  0  0  0  0  0  0  0  0  0  0
    2.3743    2.4252    1.3429 C   0  0  0  0  0  0  0  0  0  0  0  0
    1.1765    1.7912    1.4455 N   0  0  0  0  0  0  0  0  0  0  0  0
    0.3243    1.6836    0.3872 C   0  0  0  0  0  0  0  0  0  0  0  0
   -0.6322   -0.6708    2.3790 N   0  0  0  0  0  0  0  0  0  0  0  0
    0.7611   -2.0449   -2.6064 C   0  0  0  0  0  0  0  0  0  0  0  0
   -0.2593   -1.5887   -3.4471 C   0  0  0  0  0  0  0  0  0  0  0  0
    0.0496   -1.0353   -4.6458 F   0  0  0  0  0  0  0  0  0  0  0  0
   -2.9446   -2.3263   -1.4924 H   0  0  0  0  0  0  0  0  0  0  0  0
   -1.1533   -3.1186    0.0056 H   0  0  0  0  0  0  0  0  0  0  0  0
    2.3295   -3.6054   -1.0157 H   0  0  0  0  0  0  0  0  0  0  0  0
    1.1575   -3.7757    0.3209 H   0  0  0  0  0  0  0  0  0  0  0  0
    2.9570   -2.2067    1.0089 H   0  0  0  0  0  0  0  0  0  0  0  0
    2.7311   -1.2496   -0.4809 H   0  0  0  0  0  0  0  0  0  0  0  0
    1.7041   -3.0593    2.7070 H   0  0  0  0  0  0  0  0  0  0  0  0
    0.3227   -3.5317    4.6166 H   0  0  0  0  0  0  0  0  0  0  0  0
   -1.6835   -2.2653    5.1369 H   0  0  0  0  0  0  0  0  0  0  0  0
   -3.1277    1.3572    2.2289 H   0  0  0  0  0  0  0  0  0  0  0  0
   -2.7443    0.4631   -0.4771 H   0  0  0  0  0  0  0  0  0  0  0  0
   -2.1225    1.4936   -2.6271 H   0  0  0  0  0  0  0  0  0  0  0  0
    0.0535    2.6206   -2.8961 H   0  0  0  0  0  0  0  0  0  0  0  0
    2.2146    3.3623   -1.9122 H   0  0  0  0  0  0  0  0  0  0  0  0
    3.7197    3.4972    0.0454 H   0  0  0  0  0  0  0  0  0  0  0  0
    3.0252    2.4861    2.2047 H   0  0  0  0  0  0  0  0  0  0  0  0
    1.7930   -1.9492   -2.9209 H   0  0  0  0  0  0  0  0  0  0  0  0
  1  2  1  0
  2  3  2  0
  3  4  1  0
  4  5  2  0
  5  6  1  0
  6  7  1  0
  7  8  1  0
  8  9  1  0
  9 10  2  0
 10 11  1  0
 11 12  2  0
 12 13  1  0
 13 14  2  0
 14 15  1  0
 15 16  2  0
 16 17  1  0
 17 18  2  0
 18 19  1  0
 19 20  2  0
 20 21  1  0
 21 22  2  0
 22 23  1  0
 23 24  2  0
 24 25  1  0
 25 26  2  0
 16 27  1  0
  5 28  1  0
 28 29  2  0
 29 30  1  0
 29  2  1  0
 27  9  1  0
 27 13  1  0
 26 17  1  0
 26 21  1  0
  3 31  1  0
  4 32  1  0
  6 33  1  0
  6 34  1  0
  7 35  1  0
  7 36  1  0
 10 37  1  0
 11 38  1  0
 12 39  1  0
 15 40  1  0
 18 41  1  0
 19 42  1  0
 20 43  1  0
 22 44  1  0
 23 45  1  0
 24 46  1  0
 28 47  1  0
M  CHG  2  11   1  15   1
M  END
>  <UniqueID>  (4) 
19

>  <SMILES>  (4) 
Fc1ccc(CCOc2c[nH+]cc3n[nH+]c(-c4cccc5cccnc45)n23)cc1F

>  <Energy>  (4) 
99.93756189058243

>  <Genealogy>  (4) 
Fc1ccc(CCOc2c[nH+]cc3n[nH+]c(-c4cccc5cccnc45)n23)cc1F (protonated)
Fc1ccc(CCOc2c[nH+]cc3n[nH+]c(-c4cccc5cccnc45)n23)cc1F (3D coordinates assigned)
Fc1ccc(CCOc2c[nH+]cc3n[nH+]c(-c4cccc5cccnc45)n23)cc1F (optimized conformer: 99.93756189058243 kcal/mol)

$$$$
untitled_line_4
     RDKit          3D

 46 50  0  0  0  0  0  0  0  0999 V2000
    1.3320    5.0985   -3.8894 F   0  0  0  0  0  0  0  0  0  0  0  0
    1.0300    4.0291   -3.1124 C   0  0  0  0  0  0  0  0  0  0  0  0
    2.0559    3.2469   -2.5737 C   0  0  0  0  0  0  0  0  0  0  0  0
    1.7494    2.1441   -1.7706 C   0  0  0  0  0  0  0  0  0  0  0  0
    0.4101    1.8107   -1.5086 C   0  0  0  0  0  0  0  0  0  0  0  0
    0.0801    0.6445   -0.6177 C   0  0  0  0  0  0  0  0  0  0  0  0
   -0.0278    1.0892    0.8382 C   0  0  0  0  0  0  0  0  0  0  0  0
   -0.2723   -0.0506    1.6542 O   0  0  0  0  0  0  0  0  0  0  0  0
   -0.3572   -0.0249    3.0526 C   0  0  0  0  0  0  0  0  0  0  0  0
   -0.3603    1.1753    3.7975 C   0  0  0  0  0  0  0  0  0  0  0  0
   -0.4946    1.1286    5.1585 N   0  0  0  0  0  0  0  0  0  0  0  0
   -0.6269   -0.0517    5.8293 C   0  0  0  0  0  0  0  0  0  0  0  0
   -0.6115   -1.2255    5.0866 C   0  0  0  0  0  0  0  0  0  0  0  0
   -0.7510   -2.4815    5.5525 N   0  0  0  0  0  0  0  0  0  0  0  0
   -0.6830   -3.2622    4.4802 N   0  0  0  0  0  4  0  0  0  0  0  0
   -0.4951   -2.4852    3.3918 C   0  0  0  0  0  0  0  0  0  0  0  0
   -0.3371   -3.0114    2.0209 C   0  0  0  0  0  0  0  0  0  0  0  0
   -1.3561   -3.8043    1.4729 C   0  0  0  0  0  0  0  0  0  0  0  0
   -1.2475   -4.2975    0.1698 C   0  0  0  0  0  0  0  0  0  0  0  0
   -0.1159   -4.0156   -0.5987 C   0  0  0  0  0  0  0  0  0  0  0  0
    0.9249   -3.2481   -0.0586 C   0  0  0  0  0  0  0  0  0  0  0  0
    2.0762   -2.9640   -0.8050 C   0  0  0  0  0  0  0  0  0  0  0  0
    3.1038   -2.2094   -0.2368 C   0  0  0  0  0  0  0  0  0  0  0  0
    2.9747   -1.7508    1.0753 C   0  0  0  0  0  0  0  0  0  0  0  0
    1.8524   -2.0305    1.7891 N   0  0  0  0  0  0  0  0  0  0  0  0
    0.8228   -2.7520    1.2623 C   0  0  0  0  0  0  0  0  0  0  0  0
   -0.4599   -1.1866    3.7543 N   0  0  0  0  0  0  0  0  0  0  0  0
   -0.6158    2.6082   -2.0419 C   0  0  0  0  0  0  0  0  0  0  0  0
   -0.3057    3.7109   -2.8449 C   0  0  0  0  0  0  0  0  0  0  0  0
   -1.3021    4.4730   -3.3600 F   0  0  0  0  0  0  0  0  0  0  0  0
    3.0898    3.4963   -2.7752 H   0  0  0  0  0  0  0  0  0  0  0  0
    2.5538    1.5514   -1.3525 H   0  0  0  0  0  0  0  0  0  0  0  0
    0.8677   -0.1345   -0.7081 H   0  0  0  0  0  0  0  0  0  0  0  0
   -0.8794    0.1804   -0.9350 H   0  0  0  0  0  0  0  0  0  0  0  0
    0.9250    1.5701    1.1518 H   0  0  0  0  0  0  0  0  0  0  0  0
   -0.8647    1.8132    0.9468 H   0  0  0  0  0  0  0  0  0  0  0  0
   -0.2725    2.1365    3.3112 H   0  0  0  0  0  0  0  0  0  0  0  0
   -0.7429   -0.0659    6.9049 H   0  0  0  0  0  0  0  0  0  0  0  0
   -0.7480   -4.3041    4.5019 H   0  0  0  0  0  0  0  0  0  0  0  0
   -2.2459   -4.0259    2.0497 H   0  0  0  0  0  0  0  0  0  0  0  0
   -2.0459   -4.8976   -0.2472 H   0  0  0  0  0  0  0  0  0  0  0  0
   -0.0506   -4.4029   -1.6085 H   0  0  0  0  0  0  0  0  0  0  0  0
    2.1810   -3.3248   -1.8211 H   0  0  0  0  0  0  0  0  0  0  0  0
    3.9955   -1.9847   -0.8076 H   0  0  0  0  0  0  0  0  0  0  0  0
    3.7671   -1.1692    1.5268 H   0  0  0  0  0  0  0  0  0  0  0  0
   -1.6530    2.3758   -1.8341 H   0  0  0  0  0  0  0  0  0  0  0  0
  1  2  1  0
  2  3  2  0
  3  4  1  0
  4  5  2  0
  5  6  1  0
  6  7  1  0
  7  8  1  0
  8  9  1  0
  9 10  2  0
 10 11  1  0
 11 12  2  0
 12 13  1  0
 13 14  2  0
 14 15  1  0
 15 16  2  0
 16 17  1  0
 17 18  2  0
 18 19  1  0
 19 20  2  0
 20 21  1  0
 21 22  2  0
 22 23  1  0
 23 24  2  0
 24 25  1  0
 25 26  2  0
 16 27  1  0
  5 28  1  0
 28 29  2  0
 29 30  1  0
 29  2  1  0
 27  9  1  0
 27 13  1  0
 26 17  1  0
 26 21  1  0
  3 31  1  0
  4 32  1  0
  6 33  1  0
  6 34  1  0
  7 35  1  0
  7 36  1  0
 10 37  1  0
 12 38  1  0
 15 39  1  0
 18 40  1  0
 19 41  1  0
 20 42  1  0
 22 43  1  0
 23 44  1  0
 24 45  1  0
 28 46  1  0
M  CHG  1  15   1
M  END
>  <UniqueID>  (5) 
20

>  <SMILES>  (5) 
Fc1ccc(CCOc2cncc3n[nH+]c(-c4cccc5cccnc45)n23)cc1F

>  <Energy>  (5) 
101.01300772756187

>  <Genealogy>  (5) 
Fc1ccc(CCOc2cncc3n[nH+]c(-c4cccc5cccnc45)n23)cc1F (protonated)
Fc1ccc(CCOc2cncc3n[nH+]c(-c4cccc5cccnc45)n23)cc1F (3D coordinates assigned)
Fc1ccc(CCOc2cncc3n[nH+]c(-c4cccc5cccnc45)n23)cc1F (optimized conformer: 101.01300772756187 kcal/mol)

$$$$
