untitled_line_5
     RDKit          3D

 49 53  0  0  0  0  0  0  0  0999 V2000
   -4.3017   -2.2886    4.9412 F   0  0  0  0  0  0  0  0  0  0  0  0
   -3.5295   -1.8205    3.9296 C   0  0  0  0  0  0  0  0  0  0  0  0
   -3.8981   -0.6534    3.2540 C   0  0  0  0  0  0  0  0  0  0  0  0
   -3.1043   -0.1661    2.2111 C   0  0  0  0  0  0  0  0  0  0  0  0
   -1.9382   -0.8506    1.8307 C   0  0  0  0  0  0  0  0  0  0  0  0
   -1.0658   -0.3103    0.7305 C   0  0  0  0  0  0  0  0  0  0  0  0
   -0.0328    0.6655    1.2878 C   0  0  0  0  0  0  0  0  0  0  0  0
    0.7752    1.1445    0.2186 O   0  0  0  0  0  0  0  0  0  0  0  0
    1.8608    2.0179    0.3657 C   0  0  0  0  0  0  0  0  0  0  0  0
    2.2212    2.5852    1.6090 C   0  0  0  0  0  0  0  0  0  0  0  0
    3.2586    3.4771    1.6762 N   0  0  0  0  0  4  0  0  0  0  0  0
    3.9581    3.8456    0.5636 C   0  0  0  0  0  0  0  0  0  0  0  0
    3.5995    3.2700   -0.6493 C   0  0  0  0  0  0  0  0  0  0  0  0
    4.1251    3.5165   -1.8592 N   0  0  0  0  0  4  0  0  0  0  0  0
    3.4662    2.7687   -2.7360 N   0  0  0  0  0  0  0  0  0  0  0  0
    2.5452    2.0664   -2.0331 C   0  0  0  0  0  0  0  0  0  0  0  0
    1.6331    1.0889   -2.6530 C   0  0  0  0  0  0  0  0  0  0  0  0
    0.8680    1.4616   -3.7863 C   0  0  0  0  0  0  0  0  0  0  0  0
   -0.0200    0.5479   -4.3832 C   0  0  0  0  0  0  0  0  0  0  0  0
   -0.1047   -0.7307   -3.8365 C   0  0  0  0  0  0  0  0  0  0  0  0
   -0.9009   -1.7371   -4.2333 N   0  0  0  0  0  0  0  0  0  0  0  0
   -0.6309   -2.7682   -3.3970 C   0  0  0  0  0  0  0  0  0  0  0  0
   -1.3659   -4.0728   -3.4211 C   0  0  0  0  0  0  0  0  0  0  0  0
   -1.7593   -4.3710   -4.7129 F   0  0  0  0  0  0  0  0  0  0  0  0
   -0.5500   -5.0885   -2.9562 F   0  0  0  0  0  0  0  0  0  0  0  0
   -2.4844   -3.9824   -2.6144 F   0  0  0  0  0  0  0  0  0  0  0  0
    0.3287   -2.4069   -2.4530 C   0  0  0  0  0  0  0  0  0  0  0  0
    0.6538   -1.1038   -2.7593 C   0  0  0  0  0  0  0  0  0  0  0  0
    1.5435   -0.2264   -2.1465 C   0  0  0  0  0  0  0  0  0  0  0  0
    2.6055    2.3763   -0.7166 N   0  0  0  0  0  0  0  0  0  0  0  0
   -1.5663   -2.0154    2.5224 C   0  0  0  0  0  0  0  0  0  0  0  0
   -2.3626   -2.5004    3.5651 C   0  0  0  0  0  0  0  0  0  0  0  0
   -1.9993   -3.6284    4.2243 F   0  0  0  0  0  0  0  0  0  0  0  0
   -4.7976   -0.1235    3.5397 H   0  0  0  0  0  0  0  0  0  0  0  0
   -3.3966    0.7437    1.7015 H   0  0  0  0  0  0  0  0  0  0  0  0
   -1.6896    0.2063   -0.0316 H   0  0  0  0  0  0  0  0  0  0  0  0
   -0.5431   -1.1461    0.2160 H   0  0  0  0  0  0  0  0  0  0  0  0
   -0.5499    1.5209    1.7753 H   0  0  0  0  0  0  0  0  0  0  0  0
    0.6074    0.1430    2.0322 H   0  0  0  0  0  0  0  0  0  0  0  0
    1.6787    2.3375    2.5114 H   0  0  0  0  0  0  0  0  0  0  0  0
    3.5119    3.8962    2.5987 H   0  0  0  0  0  0  0  0  0  0  0  0
    4.7624    4.5676    0.6263 H   0  0  0  0  0  0  0  0  0  0  0  0
    4.9003    4.1750   -2.0949 H   0  0  0  0  0  0  0  0  0  0  0  0
    0.9453    2.4634   -4.1903 H   0  0  0  0  0  0  0  0  0  0  0  0
   -0.6218    0.8326   -5.2365 H   0  0  0  0  0  0  0  0  0  0  0  0
   -1.5968   -1.7188   -5.0122 H   0  0  0  0  0  0  0  0  0  0  0  0
    0.7168   -3.0075   -1.6406 H   0  0  0  0  0  0  0  0  0  0  0  0
    2.1403   -0.5486   -1.3018 H   0  0  0  0  0  0  0  0  0  0  0  0
   -0.6605   -2.5452    2.2539 H   0  0  0  0  0  0  0  0  0  0  0  0
  1  2  1  0
  2  3  2  0
  3  4  1  0
  4  5  2  0
  5  6  1  0
  6  7  1  0
  7  8  1  0
  8  9  1  0
  9 10  2  0
 10 11  1  0
 11 12  2  0
 12 13  1  0
 13 14  2  0
 14 15  1  0
 15 16  2  0
 16 17  1  0
 17 18  2  0
 18 19  1  0
 19 20  2  0
 20 21  1  0
 21 22  1  0
 22 23  1  0
 23 24  1  0
 23 25  1  0
 23 26  1  0
 22 27  2  0
 27 28  1  0
 28 29  2  0
 16 30  1  0
  5 31  1  0
 31 32  2  0
 32 33  1  0
 32  2  1  0
 30  9  1  0
 30 13  1  0
 29 17  1  0
 28 20  1  0
  3 34  1  0
  4 35  1  0
  6 36  1  0
  6 37  1  0
  7 38  1  0
  7 39  1  0
 10 40  1  0
 11 41  1  0
 12 42  1  0
 14 43  1  0
 18 44  1  0
 19 45  1  0
 21 46  1  0
 27 47  1  0
 29 48  1  0
 31 49  1  0
M  CHG  2  11   1  14   1
M  END
>  <UniqueID>  (1) 
21

>  <SMILES>  (1) 
Fc1ccc(CCOc2c[nH+]cc3[nH+]nc(-c4ccc5[nH]c(C(F)(F)F)cc5c4)n23)cc1F

>  <Energy>  (1) 
131.09184147773433

>  <Genealogy>  (1) 
Fc1ccc(CCOc2c[nH+]cc3[nH+]nc(-c4ccc5[nH]c(C(F)(F)F)cc5c4)n23)cc1F (protonated)
Fc1ccc(CCOc2c[nH+]cc3[nH+]nc(-c4ccc5[nH]c(C(F)(F)F)cc5c4)n23)cc1F (3D coordinates assigned)
Fc1ccc(CCOc2c[nH+]cc3[nH+]nc(-c4ccc5[nH]c(C(F)(F)F)cc5c4)n23)cc1F (optimized conformer: 131.09184147773433 kcal/mol)

$$$$
untitled_line_5
     RDKit          3D

 49 53  0  0  0  0  0  0  0  0999 V2000
    0.0806   -7.1054   -1.8971 F   0  0  0  0  0  0  0  0  0  0  0  0
   -0.0086   -5.7539   -1.8318 C   0  0  0  0  0  0  0  0  0  0  0  0
   -0.1151   -5.1216   -0.5895 C   0  0  0  0  0  0  0  0  0  0  0  0
   -0.2056   -3.7282   -0.5171 C   0  0  0  0  0  0  0  0  0  0  0  0
   -0.2001   -2.9573   -1.6915 C   0  0  0  0  0  0  0  0  0  0  0  0
   -0.2622   -1.4564   -1.6142 C   0  0  0  0  0  0  0  0  0  0  0  0
    1.1460   -0.8621   -1.5401 C   0  0  0  0  0  0  0  0  0  0  0  0
    1.0802    0.5541   -1.3871 O   0  0  0  0  0  0  0  0  0  0  0  0
    0.7185    1.4696   -2.3879 C   0  0  0  0  0  0  0  0  0  0  0  0
    0.6294    1.1194   -3.7546 C   0  0  0  0  0  0  0  0  0  0  0  0
    0.3483    2.0814   -4.6879 N   0  0  0  0  0  4  0  0  0  0  0  0
    0.1569    3.3862   -4.3365 C   0  0  0  0  0  0  0  0  0  0  0  0
    0.2318    3.7154   -2.9895 C   0  0  0  0  0  0  0  0  0  0  0  0
    0.0860    4.9392   -2.4470 N   0  0  0  0  0  0  0  0  0  0  0  0
    0.2385    4.7631   -1.1398 N   0  0  0  0  0  4  0  0  0  0  0  0
    0.4614    3.4521   -0.9034 C   0  0  0  0  0  0  0  0  0  0  0  0
    0.5719    2.8712    0.4476 C   0  0  0  0  0  0  0  0  0  0  0  0
    1.4660    3.4387    1.3895 C   0  0  0  0  0  0  0  0  0  0  0  0
    1.5869    2.8933    2.6810 C   0  0  0  0  0  0  0  0  0  0  0  0
    0.7904    1.7961    3.0026 C   0  0  0  0  0  0  0  0  0  0  0  0
    0.7659    1.1162    4.1608 N   0  0  0  0  0  0  0  0  0  0  0  0
   -0.1589    0.1404    3.9923 C   0  0  0  0  0  0  0  0  0  0  0  0
   -0.4493   -0.9154    5.0141 C   0  0  0  0  0  0  0  0  0  0  0  0
    0.4113   -1.9806    4.8284 F   0  0  0  0  0  0  0  0  0  0  0  0
   -0.2726   -0.4039    6.2867 F   0  0  0  0  0  0  0  0  0  0  0  0
   -1.7542   -1.3565    4.8866 F   0  0  0  0  0  0  0  0  0  0  0  0
   -0.7096    0.1903    2.7128 C   0  0  0  0  0  0  0  0  0  0  0  0
   -0.0929    1.2608    2.1037 C   0  0  0  0  0  0  0  0  0  0  0  0
   -0.2410    1.7783    0.8207 C   0  0  0  0  0  0  0  0  0  0  0  0
    0.4755    2.7708   -2.0686 N   0  0  0  0  0  0  0  0  0  0  0  0
   -0.0789   -3.5977   -2.9358 C   0  0  0  0  0  0  0  0  0  0  0  0
    0.0116   -4.9919   -3.0048 C   0  0  0  0  0  0  0  0  0  0  0  0
    0.1233   -5.6029   -4.2102 F   0  0  0  0  0  0  0  0  0  0  0  0
   -0.1241   -5.7103    0.3188 H   0  0  0  0  0  0  0  0  0  0  0  0
   -0.2784   -3.2502    0.4523 H   0  0  0  0  0  0  0  0  0  0  0  0
   -0.8393   -1.1466   -0.7155 H   0  0  0  0  0  0  0  0  0  0  0  0
   -0.7979   -1.0559   -2.5012 H   0  0  0  0  0  0  0  0  0  0  0  0
    1.6638   -1.2773   -0.6490 H   0  0  0  0  0  0  0  0  0  0  0  0
    1.7494   -1.1344   -2.4320 H   0  0  0  0  0  0  0  0  0  0  0  0
    0.7984    0.1040   -4.0841 H   0  0  0  0  0  0  0  0  0  0  0  0
    0.2927    1.8129   -5.6957 H   0  0  0  0  0  0  0  0  0  0  0  0
   -0.0476    4.1393   -5.0869 H   0  0  0  0  0  0  0  0  0  0  0  0
    0.1584    5.5231   -0.4283 H   0  0  0  0  0  0  0  0  0  0  0  0
    2.0792    4.2883    1.1154 H   0  0  0  0  0  0  0  0  0  0  0  0
    2.2803    3.3111    3.3993 H   0  0  0  0  0  0  0  0  0  0  0  0
    1.3519    1.2941    5.0070 H   0  0  0  0  0  0  0  0  0  0  0  0
   -1.4446   -0.4773    2.2817 H   0  0  0  0  0  0  0  0  0  0  0  0
   -0.9595    1.3483    0.1337 H   0  0  0  0  0  0  0  0  0  0  0  0
   -0.0529   -3.0164   -3.8495 H   0  0  0  0  0  0  0  0  0  0  0  0
  1  2  1  0
  2  3  2  0
  3  4  1  0
  4  5  2  0
  5  6  1  0
  6  7  1  0
  7  8  1  0
  8  9  1  0
  9 10  2  0
 10 11  1  0
 11 12  2  0
 12 13  1  0
 13 14  2  0
 14 15  1  0
 15 16  2  0
 16 17  1  0
 17 18  2  0
 18 19  1  0
 19 20  2  0
 20 21  1  0
 21 22  1  0
 22 23  1  0
 23 24  1  0
 23 25  1  0
 23 26  1  0
 22 27  2  0
 27 28  1  0
 28 29  2  0
 16 30  1  0
  5 31  1  0
 31 32  2  0
 32 33  1  0
 32  2  1  0
 30  9  1  0
 30 13  1  0
 29 17  1  0
 28 20  1  0
  3 34  1  0
  4 35  1  0
  6 36  1  0
  6 37  1  0
  7 38  1  0
  7 39  1  0
 10 40  1  0
 11 41  1  0
 12 42  1  0
 15 43  1  0
 18 44  1  0
 19 45  1  0
 21 46  1  0
 27 47  1  0
 29 48  1  0
 31 49  1  0
M  CHG  2  11   1  15   1
M  END
>  <UniqueID>  (2) 
22

>  <SMILES>  (2) 
Fc1ccc(CCOc2c[nH+]cc3n[nH+]c(-c4ccc5[nH]c(C(F)(F)F)cc5c4)n23)cc1F

>  <Energy>  (2) 
132.37070444523997

>  <Genealogy>  (2) 
Fc1ccc(CCOc2c[nH+]cc3n[nH+]c(-c4ccc5[nH]c(C(F)(F)F)cc5c4)n23)cc1F (protonated)
Fc1ccc(CCOc2c[nH+]cc3n[nH+]c(-c4ccc5[nH]c(C(F)(F)F)cc5c4)n23)cc1F (3D coordinates assigned)
Fc1ccc(CCOc2c[nH+]cc3n[nH+]c(-c4ccc5[nH]c(C(F)(F)F)cc5c4)n23)cc1F (optimized conformer: 132.37070444523997 kcal/mol)

$$$$
untitled_line_5
     RDKit          3D

 50 54  0  0  0  0  0  0  0  0999 V2000
    3.7021    2.8862   -1.2590 F   0  0  0  0  0  0  0  0  0  0  0  0
    3.1128    2.1743   -0.2667 C   0  0  0  0  0  0  0  0  0  0  0  0
    3.9009    1.5145    0.6811 C   0  0  0  0  0  0  0  0  0  0  0  0
    3.2973    0.7775    1.7049 C   0  0  0  0  0  0  0  0  0  0  0  0
    1.8972    0.7007    1.7910 C   0  0  0  0  0  0  0  0  0  0  0  0
    1.2466   -0.1265    2.8697 C   0  0  0  0  0  0  0  0  0  0  0  0
    1.2446   -1.6087    2.4990 C   0  0  0  0  0  0  0  0  0  0  0  0
    0.4064   -1.8271    1.3663 O   0  0  0  0  0  0  0  0  0  0  0  0
    0.2717   -3.0581    0.7078 C   0  0  0  0  0  0  0  0  0  0  0  0
    1.0009   -4.2091    1.0872 C   0  0  0  0  0  0  0  0  0  0  0  0
    0.8947   -5.3588    0.3509 N   0  0  0  0  0  4  0  0  0  0  0  0
    0.1018   -5.4278   -0.7571 C   0  0  0  0  0  0  0  0  0  0  0  0
   -0.6243   -4.2968   -1.1077 C   0  0  0  0  0  0  0  0  0  0  0  0
   -1.4477   -4.1498   -2.1588 N   0  0  0  0  0  4  0  0  0  0  0  0
   -1.9222   -2.9138   -2.0954 N   0  0  0  0  0  4  0  0  0  0  0  0
   -1.3894   -2.3210   -1.0023 C   0  0  0  0  0  0  0  0  0  0  0  0
   -1.7904   -0.9824   -0.5320 C   0  0  0  0  0  0  0  0  0  0  0  0
   -2.2560   -0.7979    0.7952 C   0  0  0  0  0  0  0  0  0  0  0  0
   -2.7072    0.4618    1.2285 C   0  0  0  0  0  0  0  0  0  0  0  0
   -2.6875    1.5109    0.3124 C   0  0  0  0  0  0  0  0  0  0  0  0
   -3.0655    2.7828    0.5205 N   0  0  0  0  0  0  0  0  0  0  0  0
   -2.8510    3.4241   -0.6533 C   0  0  0  0  0  0  0  0  0  0  0  0
   -3.2043    4.8595   -0.8932 C   0  0  0  0  0  0  0  0  0  0  0  0
   -2.3719    5.4013   -1.8561 F   0  0  0  0  0  0  0  0  0  0  0  0
   -3.0644    5.5832    0.2769 F   0  0  0  0  0  0  0  0  0  0  0  0
   -4.5144    4.9423   -1.3252 F   0  0  0  0  0  0  0  0  0  0  0  0
   -2.3564    2.5478   -1.6179 C   0  0  0  0  0  0  0  0  0  0  0  0
   -2.2506    1.3347   -0.9738 C   0  0  0  0  0  0  0  0  0  0  0  0
   -1.8040    0.0999   -1.4376 C   0  0  0  0  0  0  0  0  0  0  0  0
   -0.5527   -3.1776   -0.3698 N   0  0  0  0  0  0  0  0  0  0  0  0
    1.1135    1.3617    0.8322 C   0  0  0  0  0  0  0  0  0  0  0  0
    1.7184    2.0972   -0.1914 C   0  0  0  0  0  0  0  0  0  0  0  0
    0.9511    2.7335   -1.1107 F   0  0  0  0  0  0  0  0  0  0  0  0
    4.9802    1.5705    0.6213 H   0  0  0  0  0  0  0  0  0  0  0  0
    3.9192    0.2638    2.4277 H   0  0  0  0  0  0  0  0  0  0  0  0
    1.8014    0.0085    3.8236 H   0  0  0  0  0  0  0  0  0  0  0  0
    0.2019    0.2117    3.0472 H   0  0  0  0  0  0  0  0  0  0  0  0
    0.8605   -2.1988    3.3588 H   0  0  0  0  0  0  0  0  0  0  0  0
    2.2844   -1.9334    2.2750 H   0  0  0  0  0  0  0  0  0  0  0  0
    1.6583   -4.1945    1.9457 H   0  0  0  0  0  0  0  0  0  0  0  0
    1.4449   -6.1995    0.6360 H   0  0  0  0  0  0  0  0  0  0  0  0
    0.0412   -6.3371   -1.3415 H   0  0  0  0  0  0  0  0  0  0  0  0
   -1.6920   -4.8568   -2.8876 H   0  0  0  0  0  0  0  0  0  0  0  0
   -2.6186   -2.5070   -2.7589 H   0  0  0  0  0  0  0  0  0  0  0  0
   -2.2863   -1.6327    1.4843 H   0  0  0  0  0  0  0  0  0  0  0  0
   -3.0603    0.6089    2.2409 H   0  0  0  0  0  0  0  0  0  0  0  0
   -3.4512    3.1880    1.4026 H   0  0  0  0  0  0  0  0  0  0  0  0
   -2.1124    2.7681   -2.6490 H   0  0  0  0  0  0  0  0  0  0  0  0
   -1.4724   -0.0178   -2.4620 H   0  0  0  0  0  0  0  0  0  0  0  0
    0.0370    1.3079    0.8807 H   0  0  0  0  0  0  0  0  0  0  0  0
  1  2  1  0
  2  3  2  0
  3  4  1  0
  4  5  2  0
  5  6  1  0
  6  7  1  0
  7  8  1  0
  8  9  1  0
  9 10  2  0
 10 11  1  0
 11 12  2  0
 12 13  1  0
 13 14  2  0
 14 15  1  0
 15 16  2  0
 16 17  1  0
 17 18  2  0
 18 19  1  0
 19 20  2  0
 20 21  1  0
 21 22  1  0
 22 23  1  0
 23 24  1  0
 23 25  1  0
 23 26  1  0
 22 27  2  0
 27 28  1  0
 28 29  2  0
 16 30  1  0
  5 31  1  0
 31 32  2  0
 32 33  1  0
 32  2  1  0
 30  9  1  0
 30 13  1  0
 29 17  1  0
 28 20  1  0
  3 34  1  0
  4 35  1  0
  6 36  1  0
  6 37  1  0
  7 38  1  0
  7 39  1  0
 10 40  1  0
 11 41  1  0
 12 42  1  0
 14 43  1  0
 15 44  1  0
 18 45  1  0
 19 46  1  0
 21 47  1  0
 27 48  1  0
 29 49  1  0
 31 50  1  0
M  CHG  3  11   1  14   1  15   1
M  END
>  <UniqueID>  (3) 
23

>  <SMILES>  (3) 
Fc1ccc(CCOc2c[nH+]cc3[nH+][nH+]c(-c4ccc5[nH]c(C(F)(F)F)cc5c4)n23)cc1F

>  <Energy>  (3) 
131.01252191216795

>  <Genealogy>  (3) 
Fc1ccc(CCOc2c[nH+]cc3[nH+][nH+]c(-c4ccc5[nH]c(C(F)(F)F)cc5c4)n23)cc1F (protonated)
Fc1ccc(CCOc2c[nH+]cc3[nH+][nH+]c(-c4ccc5[nH]c(C(F)(F)F)cc5c4)n23)cc1F (3D coordinates assigned)
Fc1ccc(CCOc2c[nH+]cc3[nH+][nH+]c(-c4ccc5[nH]c(C(F)(F)F)cc5c4)n23)cc1F (optimized conformer: 131.01252191216795 kcal/mol)

$$$$
untitled_line_5
     RDKit          3D

 49 53  0  0  0  0  0  0  0  0999 V2000
   -4.8467   -5.3888   -1.6616 F   0  0  0  0  0  0  0  0  0  0  0  0
   -3.9513   -4.4335   -1.3089 C   0  0  0  0  0  0  0  0  0  0  0  0
   -4.3833   -3.2888   -0.6327 C   0  0  0  0  0  0  0  0  0  0  0  0
   -3.4639   -2.3004   -0.2683 C   0  0  0  0  0  0  0  0  0  0  0  0
   -2.1011   -2.4561   -0.5708 C   0  0  0  0  0  0  0  0  0  0  0  0
   -1.1155   -1.3788   -0.2082 C   0  0  0  0  0  0  0  0  0  0  0  0
   -0.9798   -0.3649   -1.3411 C   0  0  0  0  0  0  0  0  0  0  0  0
   -0.0489    0.6396   -0.9543 O   0  0  0  0  0  0  0  0  0  0  0  0
    0.2828    1.7614   -1.7252 C   0  0  0  0  0  0  0  0  0  0  0  0
   -0.2243    1.9693   -3.0279 C   0  0  0  0  0  0  0  0  0  0  0  0
    0.1837    3.0574   -3.7504 N   0  0  0  0  0  0  0  0  0  0  0  0
    1.0755    3.9599   -3.2507 C   0  0  0  0  0  0  0  0  0  0  0  0
    1.5583    3.7496   -1.9649 C   0  0  0  0  0  0  0  0  0  0  0  0
    2.4617    4.4889   -1.2995 N   0  0  0  0  0  4  0  0  0  0  0  0
    2.6349    3.9036   -0.1225 N   0  0  0  0  0  4  0  0  0  0  0  0
    1.8274    2.8194   -0.0771 C   0  0  0  0  0  0  0  0  0  0  0  0
    1.7098    1.9367    1.0986 C   0  0  0  0  0  0  0  0  0  0  0  0
    2.8781    1.4023    1.6971 C   0  0  0  0  0  0  0  0  0  0  0  0
    2.7861    0.5511    2.8135 C   0  0  0  0  0  0  0  0  0  0  0  0
    1.5169    0.2635    3.3109 C   0  0  0  0  0  0  0  0  0  0  0  0
    1.2085   -0.5203    4.3572 N   0  0  0  0  0  0  0  0  0  0  0  0
   -0.1427   -0.4900    4.4506 C   0  0  0  0  0  0  0  0  0  0  0  0
   -0.9173   -1.1751    5.5340 C   0  0  0  0  0  0  0  0  0  0  0  0
   -1.0347   -0.3271    6.6189 F   0  0  0  0  0  0  0  0  0  0  0  0
   -0.2634   -2.3286    5.9266 F   0  0  0  0  0  0  0  0  0  0  0  0
   -2.1799   -1.5100    5.0786 F   0  0  0  0  0  0  0  0  0  0  0  0
   -0.6920    0.3377    3.4731 C   0  0  0  0  0  0  0  0  0  0  0  0
    0.3873    0.7989    2.7522 C   0  0  0  0  0  0  0  0  0  0  0  0
    0.4430    1.6528    1.6545 C   0  0  0  0  0  0  0  0  0  0  0  0
    1.1450    2.6978   -1.2405 N   0  0  0  0  0  0  0  0  0  0  0  0
   -1.6754   -3.6025   -1.2621 C   0  0  0  0  0  0  0  0  0  0  0  0
   -2.5977   -4.5894   -1.6254 C   0  0  0  0  0  0  0  0  0  0  0  0
   -2.1777   -5.6955   -2.2882 F   0  0  0  0  0  0  0  0  0  0  0  0
   -5.4316   -3.1648   -0.3930 H   0  0  0  0  0  0  0  0  0  0  0  0
   -3.8132   -1.4146    0.2478 H   0  0  0  0  0  0  0  0  0  0  0  0
   -1.4471   -0.8566    0.7159 H   0  0  0  0  0  0  0  0  0  0  0  0
   -0.1213   -1.8285    0.0070 H   0  0  0  0  0  0  0  0  0  0  0  0
   -1.9691    0.1025   -1.5411 H   0  0  0  0  0  0  0  0  0  0  0  0
   -0.6159   -0.8754   -2.2596 H   0  0  0  0  0  0  0  0  0  0  0  0
   -0.9209    1.2743   -3.4751 H   0  0  0  0  0  0  0  0  0  0  0  0
    1.3964    4.8061   -3.8434 H   0  0  0  0  0  0  0  0  0  0  0  0
    2.9487    5.3538   -1.6244 H   0  0  0  0  0  0  0  0  0  0  0  0
    3.2722    4.2494    0.6291 H   0  0  0  0  0  0  0  0  0  0  0  0
    3.8540    1.6323    1.2876 H   0  0  0  0  0  0  0  0  0  0  0  0
    3.6738    0.1304    3.2678 H   0  0  0  0  0  0  0  0  0  0  0  0
    1.8748   -1.0358    4.9750 H   0  0  0  0  0  0  0  0  0  0  0  0
   -1.7367    0.5732    3.3158 H   0  0  0  0  0  0  0  0  0  0  0  0
   -0.4635    2.0785    1.2418 H   0  0  0  0  0  0  0  0  0  0  0  0
   -0.6310   -3.7294   -1.5195 H   0  0  0  0  0  0  0  0  0  0  0  0
  1  2  1  0
  2  3  2  0
  3  4  1  0
  4  5  2  0
  5  6  1  0
  6  7  1  0
  7  8  1  0
  8  9  1  0
  9 10  2  0
 10 11  1  0
 11 12  2  0
 12 13  1  0
 13 14  2  0
 14 15  1  0
 15 16  2  0
 16 17  1  0
 17 18  2  0
 18 19  1  0
 19 20  2  0
 20 21  1  0
 21 22  1  0
 22 23  1  0
 23 24  1  0
 23 25  1  0
 23 26  1  0
 22 27  2  0
 27 28  1  0
 28 29  2  0
 16 30  1  0
  5 31  1  0
 31 32  2  0
 32 33  1  0
 32  2  1  0
 30  9  1  0
 30 13  1  0
 29 17  1  0
 28 20  1  0
  3 34  1  0
  4 35  1  0
  6 36  1  0
  6 37  1  0
  7 38  1  0
  7 39  1  0
 10 40  1  0
 12 41  1  0
 14 42  1  0
 15 43  1  0
 18 44  1  0
 19 45  1  0
 21 46  1  0
 27 47  1  0
 29 48  1  0
 31 49  1  0
M  CHG  2  14   1  15   1
M  END
>  <UniqueID>  (4) 
24

>  <SMILES>  (4) 
Fc1ccc(CCOc2cncc3[nH+][nH+]c(-c4ccc5[nH]c(C(F)(F)F)cc5c4)n23)cc1F

>  <Energy>  (4) 
132.66898789943258

>  <Genealogy>  (4) 
Fc1ccc(CCOc2cncc3[nH+][nH+]c(-c4ccc5[nH]c(C(F)(F)F)cc5c4)n23)cc1F (protonated)
Fc1ccc(CCOc2cncc3[nH+][nH+]c(-c4ccc5[nH]c(C(F)(F)F)cc5c4)n23)cc1F (3D coordinates assigned)
Fc1ccc(CCOc2cncc3[nH+][nH+]c(-c4ccc5[nH]c(C(F)(F)F)cc5c4)n23)cc1F (optimized conformer: 132.66898789943258 kcal/mol)

$$$$
untitled_line_5
     RDKit          3D

 48 52  0  0  0  0  0  0  0  0999 V2000
   -2.1578   -0.2811    3.2997 F   0  0  0  0  0  0  0  0  0  0  0  0
   -1.7392   -1.0003    2.2292 C   0  0  0  0  0  0  0  0  0  0  0  0
   -0.5548   -1.7383    2.3057 C   0  0  0  0  0  0  0  0  0  0  0  0
   -0.1233   -2.4880    1.2075 C   0  0  0  0  0  0  0  0  0  0  0  0
   -0.8836   -2.5151    0.0260 C   0  0  0  0  0  0  0  0  0  0  0  0
   -0.4125   -3.3096   -1.1659 C   0  0  0  0  0  0  0  0  0  0  0  0
    0.2399   -2.4026   -2.2133 C   0  0  0  0  0  0  0  0  0  0  0  0
    1.2664   -1.6040   -1.6273 O   0  0  0  0  0  0  0  0  0  0  0  0
    2.5147   -2.0671   -1.1879 C   0  0  0  0  0  0  0  0  0  0  0  0
    3.0443   -3.3213   -1.5660 C   0  0  0  0  0  0  0  0  0  0  0  0
    4.2601   -3.7189   -1.0815 N   0  0  0  0  0  0  0  0  0  0  0  0
    4.9862   -2.9392   -0.2309 C   0  0  0  0  0  0  0  0  0  0  0  0
    4.4562   -1.7084    0.1338 C   0  0  0  0  0  0  0  0  0  0  0  0
    4.9781   -0.8346    1.0153 N   0  0  0  0  0  0  0  0  0  0  0  0
    4.0970    0.1555    1.0900 N   0  0  0  0  0  4  0  0  0  0  0  0
    3.0677   -0.1175    0.2592 C   0  0  0  0  0  0  0  0  0  0  0  0
    1.8694    0.7320    0.1338 C   0  0  0  0  0  0  0  0  0  0  0  0
    1.4327    1.1813   -1.1382 C   0  0  0  0  0  0  0  0  0  0  0  0
    0.2657    1.9562   -1.2625 C   0  0  0  0  0  0  0  0  0  0  0  0
   -0.4263    2.2819   -0.0986 C   0  0  0  0  0  0  0  0  0  0  0  0
   -1.5573    2.9989    0.0045 N   0  0  0  0  0  0  0  0  0  0  0  0
   -1.8426    3.0419    1.3281 C   0  0  0  0  0  0  0  0  0  0  0  0
   -2.9991    3.7974    1.9061 C   0  0  0  0  0  0  0  0  0  0  0  0
   -4.0503    3.8142    1.0077 F   0  0  0  0  0  0  0  0  0  0  0  0
   -3.4226    3.1966    3.0780 F   0  0  0  0  0  0  0  0  0  0  0  0
   -2.6095    5.0957    2.1749 F   0  0  0  0  0  0  0  0  0  0  0  0
   -0.8719    2.3716    2.0698 C   0  0  0  0  0  0  0  0  0  0  0  0
    0.0143    1.8837    1.1353 C   0  0  0  0  0  0  0  0  0  0  0  0
    1.1634    1.1140    1.2940 C   0  0  0  0  0  0  0  0  0  0  0  0
    3.2741   -1.3019   -0.3553 N   0  0  0  0  0  0  0  0  0  0  0  0
   -2.0618   -1.7537   -0.0509 C   0  0  0  0  0  0  0  0  0  0  0  0
   -2.4868   -0.9988    1.0473 C   0  0  0  0  0  0  0  0  0  0  0  0
   -3.6243   -0.2654    0.9643 F   0  0  0  0  0  0  0  0  0  0  0  0
    0.0325   -1.7267    3.2147 H   0  0  0  0  0  0  0  0  0  0  0  0
    0.8016   -3.0470    1.2789 H   0  0  0  0  0  0  0  0  0  0  0  0
    0.3099   -4.0925   -0.8495 H   0  0  0  0  0  0  0  0  0  0  0  0
   -1.2768   -3.8344   -1.6275 H   0  0  0  0  0  0  0  0  0  0  0  0
    0.6368   -2.9995   -3.0606 H   0  0  0  0  0  0  0  0  0  0  0  0
   -0.5328   -1.7220   -2.6302 H   0  0  0  0  0  0  0  0  0  0  0  0
    2.5082   -3.9808   -2.2320 H   0  0  0  0  0  0  0  0  0  0  0  0
    5.9361   -3.2818    0.1573 H   0  0  0  0  0  0  0  0  0  0  0  0
    4.2011    0.9941    1.7032 H   0  0  0  0  0  0  0  0  0  0  0  0
    1.9919    0.9235   -2.0290 H   0  0  0  0  0  0  0  0  0  0  0  0
   -0.0825    2.2874   -2.2322 H   0  0  0  0  0  0  0  0  0  0  0  0
   -2.0983    3.4360   -0.7748 H   0  0  0  0  0  0  0  0  0  0  0  0
   -0.8235    2.2560    3.1448 H   0  0  0  0  0  0  0  0  0  0  0  0
    1.4828    0.7960    2.2790 H   0  0  0  0  0  0  0  0  0  0  0  0
   -2.6481   -1.7457   -0.9615 H   0  0  0  0  0  0  0  0  0  0  0  0
  1  2  1  0
  2  3  2  0
  3  4  1  0
  4  5  2  0
  5  6  1  0
  6  7  1  0
  7  8  1  0
  8  9  1  0
  9 10  2  0
 10 11  1  0
 11 12  2  0
 12 13  1  0
 13 14  2  0
 14 15  1  0
 15 16  2  0
 16 17  1  0
 17 18  2  0
 18 19  1  0
 19 20  2  0
 20 21  1  0
 21 22  1  0
 22 23  1  0
 23 24  1  0
 23 25  1  0
 23 26  1  0
 22 27  2  0
 27 28  1  0
 28 29  2  0
 16 30  1  0
  5 31  1  0
 31 32  2  0
 32 33  1  0
 32  2  1  0
 30  9  1  0
 30 13  1  0
 29 17  1  0
 28 20  1  0
  3 34  1  0
  4 35  1  0
  6 36  1  0
  6 37  1  0
  7 38  1  0
  7 39  1  0
 10 40  1  0
 12 41  1  0
 15 42  1  0
 18 43  1  0
 19 44  1  0
 21 45  1  0
 27 46  1  0
 29 47  1  0
 31 48  1  0
M  CHG  1  15   1
M  END
>  <UniqueID>  (5) 
25

>  <SMILES>  (5) 
Fc1ccc(CCOc2cncc3n[nH+]c(-c4ccc5[nH]c(C(F)(F)F)cc5c4)n23)cc1F

>  <Energy>  (5) 
128.2765374793068

>  <Genealogy>  (5) 
Fc1ccc(CCOc2cncc3n[nH+]c(-c4ccc5[nH]c(C(F)(F)F)cc5c4)n23)cc1F (protonated)
Fc1ccc(CCOc2cncc3n[nH+]c(-c4ccc5[nH]c(C(F)(F)F)cc5c4)n23)cc1F (3D coordinates assigned)
Fc1ccc(CCOc2cncc3n[nH+]c(-c4ccc5[nH]c(C(F)(F)F)cc5c4)n23)cc1F (optimized conformer: 128.2765374793068 kcal/mol)

$$$$
