untitled_line_8
     RDKit          3D

 50 53  0  0  0  0  0  0  0  0999 V2000
   -2.2158   -4.7891    0.2097 C   0  0  0  0  0  0  0  0  0  0  0  0
   -2.0694   -3.2903    0.1646 C   0  0  0  0  0  0  0  0  0  0  0  0
   -1.7775   -2.6756   -1.0662 C   0  0  0  0  0  0  0  0  0  0  0  0
   -1.6245   -1.2873   -1.1560 C   0  0  0  0  0  0  0  0  0  0  0  0
   -1.3301   -0.6622   -2.4584 C   0  0  0  0  0  0  0  0  0  0  0  0
   -2.0564   -0.9073   -3.5756 N   0  0  0  0  0  0  0  0  0  0  0  0
   -1.5623   -0.1282   -4.5297 N   0  0  0  0  0  4  0  0  0  0  0  0
   -0.5519    0.5711   -3.9906 C   0  0  0  0  0  0  0  0  0  0  0  0
    0.2619    1.5046   -4.6196 C   0  0  0  0  0  0  0  0  0  0  0  0
    1.2559    2.0819   -3.8845 N   0  0  0  0  0  4  0  0  0  0  0  0
    1.4697    1.7434   -2.5747 C   0  0  0  0  0  0  0  0  0  0  0  0
    0.6419    0.7802   -1.9518 C   0  0  0  0  0  0  0  0  0  0  0  0
    0.8493    0.3306   -0.6380 O   0  0  0  0  0  0  0  0  0  0  0  0
    1.7492    0.9094    0.3050 C   0  0  0  0  0  0  0  0  0  0  0  0
    1.1913    2.2327    0.8335 C   0  0  0  0  0  0  0  0  0  0  0  0
    2.1247    2.8323    1.8496 C   0  0  0  0  0  0  0  0  0  0  0  0
    3.1716    3.6737    1.4386 C   0  0  0  0  0  0  0  0  0  0  0  0
    4.0589    4.2045    2.3799 C   0  0  0  0  0  0  0  0  0  0  0  0
    3.9138    3.8919    3.7348 C   0  0  0  0  0  0  0  0  0  0  0  0
    4.7776    4.4078    4.6440 F   0  0  0  0  0  0  0  0  0  0  0  0
    2.8820    3.0434    4.1499 C   0  0  0  0  0  0  0  0  0  0  0  0
    2.7447    2.7323    5.4626 F   0  0  0  0  0  0  0  0  0  0  0  0
    1.9927    2.5108    3.2107 C   0  0  0  0  0  0  0  0  0  0  0  0
   -0.3683    0.2589   -2.7020 N   0  0  0  0  0  0  0  0  0  0  0  0
   -1.8185   -0.4992   -0.0166 C   0  0  0  0  0  0  0  0  0  0  0  0
   -2.1162   -1.0928    1.2097 C   0  0  0  0  0  0  0  0  0  0  0  0
   -2.2487   -2.4869    1.3195 C   0  0  0  0  0  0  0  0  0  0  0  0
   -2.6269   -3.2049    2.8991 S   0  0  0  0  0  6  0  0  0  0  0  0
   -2.9847   -1.9992    4.0888 N   0  0  0  0  0  0  0  0  0  0  0  0
   -3.8249   -4.1026    2.7690 O   0  0  0  0  0  0  0  0  0  0  0  0
   -1.4490   -4.0088    3.3729 O   0  0  0  0  0  0  0  0  0  0  0  0
   -1.8787   -5.2611   -0.7377 H   0  0  0  0  0  0  0  0  0  0  0  0
   -3.2809   -5.0569    0.3667 H   0  0  0  0  0  0  0  0  0  0  0  0
   -1.5986   -5.2144    1.0271 H   0  0  0  0  0  0  0  0  0  0  0  0
   -1.6524   -3.2801   -1.9574 H   0  0  0  0  0  0  0  0  0  0  0  0
   -1.9127   -0.0869   -5.5124 H   0  0  0  0  0  0  0  0  0  0  0  0
    0.1160    1.7663   -5.6600 H   0  0  0  0  0  0  0  0  0  0  0  0
    1.8782    2.7885   -4.3365 H   0  0  0  0  0  0  0  0  0  0  0  0
    2.2859    2.2093   -2.0409 H   0  0  0  0  0  0  0  0  0  0  0  0
    2.7563    1.0427   -0.1446 H   0  0  0  0  0  0  0  0  0  0  0  0
    1.8563    0.2016    1.1547 H   0  0  0  0  0  0  0  0  0  0  0  0
    0.1938    2.0532    1.2915 H   0  0  0  0  0  0  0  0  0  0  0  0
    1.0413    2.9460   -0.0048 H   0  0  0  0  0  0  0  0  0  0  0  0
    3.3007    3.9160    0.3909 H   0  0  0  0  0  0  0  0  0  0  0  0
    4.8612    4.8556    2.0573 H   0  0  0  0  0  0  0  0  0  0  0  0
    1.2031    1.8474    3.5420 H   0  0  0  0  0  0  0  0  0  0  0  0
   -1.7462    0.5800   -0.0777 H   0  0  0  0  0  0  0  0  0  0  0  0
   -2.2459   -0.4506    2.0683 H   0  0  0  0  0  0  0  0  0  0  0  0
   -2.1278   -1.4158    4.2167 H   0  0  0  0  0  0  0  0  0  0  0  0
   -3.7358   -1.3855    3.7010 H   0  0  0  0  0  0  0  0  0  0  0  0
  1  2  1  0
  2  3  2  0
  3  4  1  0
  4  5  1  0
  5  6  2  0
  6  7  1  0
  7  8  2  0
  8  9  1  0
  9 10  2  0
 10 11  1  0
 11 12  2  0
 12 13  1  0
 13 14  1  0
 14 15  1  0
 15 16  1  0
 16 17  2  0
 17 18  1  0
 18 19  2  0
 19 20  1  0
 19 21  1  0
 21 22  1  0
 21 23  2  0
 12 24  1  0
  4 25  2  0
 25 26  1  0
 26 27  2  0
 27 28  1  0
 28 29  1  0
 28 30  2  0
 28 31  2  0
 27  2  1  0
 24  5  1  0
 24  8  1  0
 23 16  1  0
  1 32  1  0
  1 33  1  0
  1 34  1  0
  3 35  1  0
  7 36  1  0
  9 37  1  0
 10 38  1  0
 11 39  1  0
 14 40  1  0
 14 41  1  0
 15 42  1  0
 15 43  1  0
 17 44  1  0
 18 45  1  0
 23 46  1  0
 25 47  1  0
 26 48  1  0
 29 49  1  0
 29 50  1  0
M  CHG  2   7   1  10   1
M  END
>  <UniqueID>  (1) 
36

>  <SMILES>  (1) 
Cc1cc(-c2n[nH+]c3c[nH+]cc(OCCc4ccc(F)c(F)c4)n23)ccc1S(N)(=O)=O

>  <Energy>  (1) 
101.38986193157837

>  <Genealogy>  (1) 
Cc1cc(-c2n[nH+]c3c[nH+]cc(OCCc4ccc(F)c(F)c4)n23)ccc1S(N)(=O)=O (protonated)
Cc1cc(-c2n[nH+]c3c[nH+]cc(OCCc4ccc(F)c(F)c4)n23)ccc1S(N)(=O)=O (3D coordinates assigned)
Cc1cc(-c2n[nH+]c3c[nH+]cc(OCCc4ccc(F)c(F)c4)n23)ccc1S(N)(=O)=O (optimized conformer: 101.38986193157837 kcal/mol)

$$$$
untitled_line_8
     RDKit          3D

 49 52  0  0  0  0  0  0  0  0999 V2000
    2.6977    2.7663    0.0448 C   0  0  0  0  0  0  0  0  0  0  0  0
    1.7447    1.8556    0.7726 C   0  0  0  0  0  0  0  0  0  0  0  0
    1.6253    0.5206    0.3484 C   0  0  0  0  0  0  0  0  0  0  0  0
    0.7518   -0.3618    0.9953 C   0  0  0  0  0  0  0  0  0  0  0  0
    0.6226   -1.7489    0.5145 C   0  0  0  0  0  0  0  0  0  0  0  0
    1.6870   -2.5582    0.2964 N   0  0  0  0  0  0  0  0  0  0  0  0
    1.2050   -3.7060   -0.1636 N   0  0  0  0  0  4  0  0  0  0  0  0
   -0.1288   -3.5787   -0.2351 C   0  0  0  0  0  0  0  0  0  0  0  0
   -1.0416   -4.5047   -0.7243 C   0  0  0  0  0  0  0  0  0  0  0  0
   -2.3526   -4.1352   -0.7803 N   0  0  0  0  0  0  0  0  0  0  0  0
   -2.7709   -2.8955   -0.3803 C   0  0  0  0  0  0  0  0  0  0  0  0
   -1.8300   -1.9618    0.1108 C   0  0  0  0  0  0  0  0  0  0  0  0
   -2.1817   -0.6629    0.5066 O   0  0  0  0  0  0  0  0  0  0  0  0
   -3.4059   -0.0005    0.1939 C   0  0  0  0  0  0  0  0  0  0  0  0
   -3.4542    0.3869   -1.2867 C   0  0  0  0  0  0  0  0  0  0  0  0
   -2.2789    1.2543   -1.6590 C   0  0  0  0  0  0  0  0  0  0  0  0
   -1.1190    0.6823   -2.2087 C   0  0  0  0  0  0  0  0  0  0  0  0
   -0.0236    1.4872   -2.5352 C   0  0  0  0  0  0  0  0  0  0  0  0
   -0.0738    2.8654   -2.3083 C   0  0  0  0  0  0  0  0  0  0  0  0
    0.9848    3.6445   -2.6410 F   0  0  0  0  0  0  0  0  0  0  0  0
   -1.2160    3.4393   -1.7413 C   0  0  0  0  0  0  0  0  0  0  0  0
   -1.2640    4.7754   -1.5155 F   0  0  0  0  0  0  0  0  0  0  0  0
   -2.3135    2.6369   -1.4126 C   0  0  0  0  0  0  0  0  0  0  0  0
   -0.5323   -2.3710    0.1792 N   0  0  0  0  0  0  0  0  0  0  0  0
    0.0376    0.0744    2.1161 C   0  0  0  0  0  0  0  0  0  0  0  0
    0.1520    1.3935    2.5541 C   0  0  0  0  0  0  0  0  0  0  0  0
    1.0006    2.2960    1.8947 C   0  0  0  0  0  0  0  0  0  0  0  0
    1.0912    3.9648    2.4800 S   0  0  0  0  0  6  0  0  0  0  0  0
    0.3350    5.0163    1.3350 N   0  0  0  0  0  0  0  0  0  0  0  0
    2.5275    4.3651    2.6666 O   0  0  0  0  0  0  0  0  0  0  0  0
    0.3854    4.0913    3.8017 O   0  0  0  0  0  0  0  0  0  0  0  0
    2.2179    3.7426   -0.1699 H   0  0  0  0  0  0  0  0  0  0  0  0
    3.6052    2.9263    0.6629 H   0  0  0  0  0  0  0  0  0  0  0  0
    3.0108    2.3320   -0.9286 H   0  0  0  0  0  0  0  0  0  0  0  0
    2.1955    0.1712   -0.5048 H   0  0  0  0  0  0  0  0  0  0  0  0
    1.7818   -4.5316   -0.4388 H   0  0  0  0  0  0  0  0  0  0  0  0
   -0.7276   -5.4823   -1.0651 H   0  0  0  0  0  0  0  0  0  0  0  0
   -3.8202   -2.6518   -0.4539 H   0  0  0  0  0  0  0  0  0  0  0  0
   -4.2775   -0.6320    0.4649 H   0  0  0  0  0  0  0  0  0  0  0  0
   -3.4701    0.9219    0.8097 H   0  0  0  0  0  0  0  0  0  0  0  0
   -4.4013    0.9331   -1.4876 H   0  0  0  0  0  0  0  0  0  0  0  0
   -3.4708   -0.5294   -1.9151 H   0  0  0  0  0  0  0  0  0  0  0  0
   -1.0630   -0.3848   -2.3849 H   0  0  0  0  0  0  0  0  0  0  0  0
    0.8651    1.0410   -2.9624 H   0  0  0  0  0  0  0  0  0  0  0  0
   -3.1915    3.0912   -0.9704 H   0  0  0  0  0  0  0  0  0  0  0  0
   -0.6123   -0.6073    2.6513 H   0  0  0  0  0  0  0  0  0  0  0  0
   -0.4266    1.7071    3.4129 H   0  0  0  0  0  0  0  0  0  0  0  0
    0.3453    5.9761    1.7468 H   0  0  0  0  0  0  0  0  0  0  0  0
   -0.6663    4.7257    1.2705 H   0  0  0  0  0  0  0  0  0  0  0  0
  1  2  1  0
  2  3  2  0
  3  4  1  0
  4  5  1  0
  5  6  2  0
  6  7  1  0
  7  8  2  0
  8  9  1  0
  9 10  2  0
 10 11  1  0
 11 12  2  0
 12 13  1  0
 13 14  1  0
 14 15  1  0
 15 16  1  0
 16 17  2  0
 17 18  1  0
 18 19  2  0
 19 20  1  0
 19 21  1  0
 21 22  1  0
 21 23  2  0
 12 24  1  0
  4 25  2  0
 25 26  1  0
 26 27  2  0
 27 28  1  0
 28 29  1  0
 28 30  2  0
 28 31  2  0
 27  2  1  0
 24  5  1  0
 24  8  1  0
 23 16  1  0
  1 32  1  0
  1 33  1  0
  1 34  1  0
  3 35  1  0
  7 36  1  0
  9 37  1  0
 11 38  1  0
 14 39  1  0
 14 40  1  0
 15 41  1  0
 15 42  1  0
 17 43  1  0
 18 44  1  0
 23 45  1  0
 25 46  1  0
 26 47  1  0
 29 48  1  0
 29 49  1  0
M  CHG  1   7   1
M  END
>  <UniqueID>  (2) 
37

>  <SMILES>  (2) 
Cc1cc(-c2n[nH+]c3cncc(OCCc4ccc(F)c(F)c4)n23)ccc1S(N)(=O)=O

>  <Energy>  (2) 
95.92356228221387

>  <Genealogy>  (2) 
Cc1cc(-c2n[nH+]c3cncc(OCCc4ccc(F)c(F)c4)n23)ccc1S(N)(=O)=O (protonated)
Cc1cc(-c2n[nH+]c3cncc(OCCc4ccc(F)c(F)c4)n23)ccc1S(N)(=O)=O (3D coordinates assigned)
Cc1cc(-c2n[nH+]c3cncc(OCCc4ccc(F)c(F)c4)n23)ccc1S(N)(=O)=O (optimized conformer: 95.92356228221387 kcal/mol)

$$$$
untitled_line_8
     RDKit          3D

 49 52  0  0  0  0  0  0  0  0999 V2000
   -0.9514   -3.5966   -0.4221 C   0  0  0  0  0  0  0  0  0  0  0  0
    0.1018   -2.6269   -0.8891 C   0  0  0  0  0  0  0  0  0  0  0  0
    0.5830   -1.6633    0.0140 C   0  0  0  0  0  0  0  0  0  0  0  0
    1.5130   -0.6991   -0.3942 C   0  0  0  0  0  0  0  0  0  0  0  0
    1.9654    0.3567    0.5300 C   0  0  0  0  0  0  0  0  0  0  0  0
    3.2731    0.6408    0.7414 N   0  0  0  0  0  0  0  0  0  0  0  0
    3.3092    1.6930    1.5490 N   0  0  0  0  0  4  0  0  0  0  0  0
    2.0397    2.0474    1.7998 C   0  0  0  0  0  0  0  0  0  0  0  0
    1.5982    3.1437    2.5297 C   0  0  0  0  0  0  0  0  0  0  0  0
    0.2545    3.3721    2.5882 N   0  0  0  0  0  4  0  0  0  0  0  0
   -0.6404    2.5597    1.9444 C   0  0  0  0  0  0  0  0  0  0  0  0
   -0.1767    1.4465    1.2065 C   0  0  0  0  0  0  0  0  0  0  0  0
   -1.0368    0.5765    0.5210 O   0  0  0  0  0  0  0  0  0  0  0  0
   -2.4121    0.8160    0.2277 C   0  0  0  0  0  0  0  0  0  0  0  0
   -2.5555    1.8352   -0.9049 C   0  0  0  0  0  0  0  0  0  0  0  0
   -1.8026    1.3868   -2.1316 C   0  0  0  0  0  0  0  0  0  0  0  0
   -0.5236    1.8989   -2.4074 C   0  0  0  0  0  0  0  0  0  0  0  0
    0.1856    1.4558   -3.5277 C   0  0  0  0  0  0  0  0  0  0  0  0
   -0.3680    0.4883   -4.3711 C   0  0  0  0  0  0  0  0  0  0  0  0
    0.3281    0.0543   -5.4508 F   0  0  0  0  0  0  0  0  0  0  0  0
   -1.6323   -0.0402   -4.0930 C   0  0  0  0  0  0  0  0  0  0  0  0
   -2.1662   -0.9868   -4.9039 F   0  0  0  0  0  0  0  0  0  0  0  0
   -2.3475    0.4055   -2.9767 C   0  0  0  0  0  0  0  0  0  0  0  0
    1.1696    1.2371    1.1838 N   0  0  0  0  0  0  0  0  0  0  0  0
    2.0281   -0.7479   -1.6929 C   0  0  0  0  0  0  0  0  0  0  0  0
    1.5627   -1.7000   -2.5997 C   0  0  0  0  0  0  0  0  0  0  0  0
    0.5791   -2.6275   -2.2232 C   0  0  0  0  0  0  0  0  0  0  0  0
   -0.0337   -3.7685   -3.4323 S   0  0  0  0  0  6  0  0  0  0  0  0
    0.5570   -3.3710   -5.0087 N   0  0  0  0  0  2  0  0  0  0  0  0
    0.4109   -5.1606   -3.0821 O   0  0  0  0  0  0  0  0  0  0  0  0
   -1.5348   -3.7129   -3.4650 O   0  0  0  0  0  0  0  0  0  0  0  0
   -1.9330   -3.3198   -0.8598 H   0  0  0  0  0  0  0  0  0  0  0  0
   -1.0511   -3.5875    0.6842 H   0  0  0  0  0  0  0  0  0  0  0  0
   -0.6872   -4.6316   -0.7206 H   0  0  0  0  0  0  0  0  0  0  0  0
    0.2209   -1.6510    1.0355 H   0  0  0  0  0  0  0  0  0  0  0  0
    4.1796    2.1623    1.8841 H   0  0  0  0  0  0  0  0  0  0  0  0
    2.2968    3.8081    3.0224 H   0  0  0  0  0  0  0  0  0  0  0  0
   -0.0991    4.1932    3.1281 H   0  0  0  0  0  0  0  0  0  0  0  0
   -1.6946    2.7869    2.0114 H   0  0  0  0  0  0  0  0  0  0  0  0
   -2.8705   -0.1440   -0.0923 H   0  0  0  0  0  0  0  0  0  0  0  0
   -2.9613    1.1480    1.1330 H   0  0  0  0  0  0  0  0  0  0  0  0
   -3.6326    1.9550   -1.1522 H   0  0  0  0  0  0  0  0  0  0  0  0
   -2.1877    2.8270   -0.5639 H   0  0  0  0  0  0  0  0  0  0  0  0
   -0.0744    2.6365   -1.7538 H   0  0  0  0  0  0  0  0  0  0  0  0
    1.1701    1.8549   -3.7348 H   0  0  0  0  0  0  0  0  0  0  0  0
   -3.3230   -0.0155   -2.7668 H   0  0  0  0  0  0  0  0  0  0  0  0
    2.7647   -0.0229   -2.0177 H   0  0  0  0  0  0  0  0  0  0  0  0
    1.9594   -1.6906   -3.6052 H   0  0  0  0  0  0  0  0  0  0  0  0
    1.5576   -3.6690   -5.0474 H   0  0  0  0  0  0  0  0  0  0  0  0
  1  2  1  0
  2  3  2  0
  3  4  1  0
  4  5  1  0
  5  6  2  0
  6  7  1  0
  7  8  2  0
  8  9  1  0
  9 10  2  0
 10 11  1  0
 11 12  2  0
 12 13  1  0
 13 14  1  0
 14 15  1  0
 15 16  1  0
 16 17  2  0
 17 18  1  0
 18 19  2  0
 19 20  1  0
 19 21  1  0
 21 22  1  0
 21 23  2  0
 12 24  1  0
  4 25  2  0
 25 26  1  0
 26 27  2  0
 27 28  1  0
 28 29  1  0
 28 30  2  0
 28 31  2  0
 27  2  1  0
 24  5  1  0
 24  8  1  0
 23 16  1  0
  1 32  1  0
  1 33  1  0
  1 34  1  0
  3 35  1  0
  7 36  1  0
  9 37  1  0
 10 38  1  0
 11 39  1  0
 14 40  1  0
 14 41  1  0
 15 42  1  0
 15 43  1  0
 17 44  1  0
 18 45  1  0
 23 46  1  0
 25 47  1  0
 26 48  1  0
 29 49  1  0
M  CHG  3   7   1  10   1  29  -1
M  END
>  <UniqueID>  (3) 
38

>  <SMILES>  (3) 
Cc1cc(-c2n[nH+]c3c[nH+]cc(OCCc4ccc(F)c(F)c4)n23)ccc1S([NH-])(=O)=O

>  <Energy>  (3) 
96.41171695516492

>  <Genealogy>  (3) 
Cc1cc(-c2n[nH+]c3c[nH+]cc(OCCc4ccc(F)c(F)c4)n23)ccc1S([NH-])(=O)=O (protonated)
Cc1cc(-c2n[nH+]c3c[nH+]cc(OCCc4ccc(F)c(F)c4)n23)ccc1S([NH-])(=O)=O (3D coordinates assigned)
Cc1cc(-c2n[nH+]c3c[nH+]cc(OCCc4ccc(F)c(F)c4)n23)ccc1S([NH-])(=O)=O (optimized conformer: 96.41171695516492 kcal/mol)

$$$$
untitled_line_8
     RDKit          3D

 49 52  0  0  0  0  0  0  0  0999 V2000
   -5.5799    1.7426   -0.6706 C   0  0  0  0  0  0  0  0  0  0  0  0
   -4.0748    1.6858   -0.6768 C   0  0  0  0  0  0  0  0  0  0  0  0
   -3.3779    2.0041    0.5026 C   0  0  0  0  0  0  0  0  0  0  0  0
   -1.9790    1.9582    0.5435 C   0  0  0  0  0  0  0  0  0  0  0  0
   -1.2679    2.3073    1.7871 C   0  0  0  0  0  0  0  0  0  0  0  0
   -1.4997    3.4484    2.4756 N   0  0  0  0  0  0  0  0  0  0  0  0
   -0.6465    3.4830    3.4941 N   0  0  0  0  0  0  0  0  0  0  0  0
    0.0855    2.3587    3.4045 C   0  0  0  0  0  0  0  0  0  0  0  0
    1.1021    1.9539    4.2596 C   0  0  0  0  0  0  0  0  0  0  0  0
    1.7080    0.7569    4.0106 N   0  0  0  0  0  4  0  0  0  0  0  0
    1.3201   -0.0411    2.9675 C   0  0  0  0  0  0  0  0  0  0  0  0
    0.2738    0.3769    2.1128 C   0  0  0  0  0  0  0  0  0  0  0  0
   -0.2256   -0.4205    1.0708 O   0  0  0  0  0  0  0  0  0  0  0  0
    0.3619   -1.6308    0.5972 C   0  0  0  0  0  0  0  0  0  0  0  0
    1.6186   -1.3300   -0.2226 C   0  0  0  0  0  0  0  0  0  0  0  0
    2.2278   -2.6030   -0.7435 C   0  0  0  0  0  0  0  0  0  0  0  0
    3.1552   -3.3139    0.0360 C   0  0  0  0  0  0  0  0  0  0  0  0
    3.6966   -4.5143   -0.4344 C   0  0  0  0  0  0  0  0  0  0  0  0
    3.3093   -5.0179   -1.6797 C   0  0  0  0  0  0  0  0  0  0  0  0
    3.8358   -6.1832   -2.1311 F   0  0  0  0  0  0  0  0  0  0  0  0
    2.3756   -4.3227   -2.4554 C   0  0  0  0  0  0  0  0  0  0  0  0
    1.9924   -4.8139   -3.6599 F   0  0  0  0  0  0  0  0  0  0  0  0
    1.8322   -3.1216   -1.9877 C   0  0  0  0  0  0  0  0  0  0  0  0
   -0.2760    1.5972    2.3648 N   0  0  0  0  0  0  0  0  0  0  0  0
   -1.2664    1.6443   -0.6194 C   0  0  0  0  0  0  0  0  0  0  0  0
   -1.9433    1.3351   -1.7988 C   0  0  0  0  0  0  0  0  0  0  0  0
   -3.3459    1.3538   -1.8457 C   0  0  0  0  0  0  0  0  0  0  0  0
   -4.1550    0.9478   -3.3685 S   0  0  0  0  0  6  0  0  0  0  0  0
   -4.9835   -0.5601   -3.1989 N   0  0  0  0  0  0  0  0  0  0  0  0
   -3.1463    0.8285   -4.4772 O   0  0  0  0  0  0  0  0  0  0  0  0
   -5.1351    2.0279   -3.7301 O   0  0  0  0  0  0  0  0  0  0  0  0
   -5.9801    1.8469    0.3604 H   0  0  0  0  0  0  0  0  0  0  0  0
   -5.9238    2.6149   -1.2637 H   0  0  0  0  0  0  0  0  0  0  0  0
   -6.0045    0.8109   -1.0966 H   0  0  0  0  0  0  0  0  0  0  0  0
   -3.9251    2.2738    1.3987 H   0  0  0  0  0  0  0  0  0  0  0  0
    1.4050    2.5660    5.0997 H   0  0  0  0  0  0  0  0  0  0  0  0
    2.4765    0.4351    4.6403 H   0  0  0  0  0  0  0  0  0  0  0  0
    1.8129   -0.9925    2.8258 H   0  0  0  0  0  0  0  0  0  0  0  0
    0.5820   -2.3170    1.4428 H   0  0  0  0  0  0  0  0  0  0  0  0
   -0.3791   -2.1378   -0.0572 H   0  0  0  0  0  0  0  0  0  0  0  0
    1.3520   -0.6605   -1.0697 H   0  0  0  0  0  0  0  0  0  0  0  0
    2.3606   -0.7869    0.4007 H   0  0  0  0  0  0  0  0  0  0  0  0
    3.4564   -2.9394    1.0066 H   0  0  0  0  0  0  0  0  0  0  0  0
    4.4139   -5.0553    0.1692 H   0  0  0  0  0  0  0  0  0  0  0  0
    1.1030   -2.5963   -2.5924 H   0  0  0  0  0  0  0  0  0  0  0  0
   -0.1831    1.6459   -0.6163 H   0  0  0  0  0  0  0  0  0  0  0  0
   -1.3648    1.0850   -2.6783 H   0  0  0  0  0  0  0  0  0  0  0  0
   -5.3811   -0.7982   -4.1350 H   0  0  0  0  0  0  0  0  0  0  0  0
   -4.2605   -1.2830   -2.9844 H   0  0  0  0  0  0  0  0  0  0  0  0
  1  2  1  0
  2  3  2  0
  3  4  1  0
  4  5  1  0
  5  6  2  0
  6  7  1  0
  7  8  2  0
  8  9  1  0
  9 10  2  0
 10 11  1  0
 11 12  2  0
 12 13  1  0
 13 14  1  0
 14 15  1  0
 15 16  1  0
 16 17  2  0
 17 18  1  0
 18 19  2  0
 19 20  1  0
 19 21  1  0
 21 22  1  0
 21 23  2  0
 12 24  1  0
  4 25  2  0
 25 26  1  0
 26 27  2  0
 27 28  1  0
 28 29  1  0
 28 30  2  0
 28 31  2  0
 27  2  1  0
 24  5  1  0
 24  8  1  0
 23 16  1  0
  1 32  1  0
  1 33  1  0
  1 34  1  0
  3 35  1  0
  9 36  1  0
 10 37  1  0
 11 38  1  0
 14 39  1  0
 14 40  1  0
 15 41  1  0
 15 42  1  0
 17 43  1  0
 18 44  1  0
 23 45  1  0
 25 46  1  0
 26 47  1  0
 29 48  1  0
 29 49  1  0
M  CHG  1  10   1
M  END
>  <UniqueID>  (4) 
39

>  <SMILES>  (4) 
Cc1cc(-c2nnc3c[nH+]cc(OCCc4ccc(F)c(F)c4)n23)ccc1S(N)(=O)=O

>  <Energy>  (4) 
98.97812586816127

>  <Genealogy>  (4) 
Cc1cc(-c2nnc3c[nH+]cc(OCCc4ccc(F)c(F)c4)n23)ccc1S(N)(=O)=O (protonated)
Cc1cc(-c2nnc3c[nH+]cc(OCCc4ccc(F)c(F)c4)n23)ccc1S(N)(=O)=O (3D coordinates assigned)
Cc1cc(-c2nnc3c[nH+]cc(OCCc4ccc(F)c(F)c4)n23)ccc1S(N)(=O)=O (optimized conformer: 98.97812586816127 kcal/mol)

$$$$
untitled_line_8
     RDKit          3D

 48 51  0  0  0  0  0  0  0  0999 V2000
    1.3000    1.3747   -1.4780 C   0  0  0  0  0  0  0  0  0  0  0  0
    0.1010    0.7369   -2.1302 C   0  0  0  0  0  0  0  0  0  0  0  0
   -1.1739    0.9893   -1.5950 C   0  0  0  0  0  0  0  0  0  0  0  0
   -2.3173    0.4069   -2.1567 C   0  0  0  0  0  0  0  0  0  0  0  0
   -3.6508    0.6642   -1.5828 C   0  0  0  0  0  0  0  0  0  0  0  0
   -4.6949    1.1240   -2.3098 N   0  0  0  0  0  0  0  0  0  0  0  0
   -5.7226    1.2810   -1.4813 N   0  0  0  0  0  0  0  0  0  0  0  0
   -5.2821    0.9080   -0.2668 C   0  0  0  0  0  0  0  0  0  0  0  0
   -6.0112    0.8815    0.9154 C   0  0  0  0  0  0  0  0  0  0  0  0
   -5.3863    0.4263    2.0388 N   0  0  0  0  0  0  0  0  0  0  0  0
   -4.0882   -0.0054    2.0178 C   0  0  0  0  0  0  0  0  0  0  0  0
   -3.3622    0.0164    0.8058 C   0  0  0  0  0  0  0  0  0  0  0  0
   -2.0510   -0.4662    0.6997 O   0  0  0  0  0  0  0  0  0  0  0  0
   -1.2843   -0.9753    1.7854 C   0  0  0  0  0  0  0  0  0  0  0  0
    0.1007   -1.3655    1.2766 C   0  0  0  0  0  0  0  0  0  0  0  0
    0.9483   -1.9046    2.3966 C   0  0  0  0  0  0  0  0  0  0  0  0
    1.7378   -1.0363    3.1685 C   0  0  0  0  0  0  0  0  0  0  0  0
    2.5016   -1.5344    4.2285 C   0  0  0  0  0  0  0  0  0  0  0  0
    2.4757   -2.8990    4.5312 C   0  0  0  0  0  0  0  0  0  0  0  0
    3.2170   -3.3773    5.5611 F   0  0  0  0  0  0  0  0  0  0  0  0
    1.6816   -3.7678    3.7753 C   0  0  0  0  0  0  0  0  0  0  0  0
    1.6490   -5.0905    4.0722 F   0  0  0  0  0  0  0  0  0  0  0  0
    0.9164   -3.2727    2.7142 C   0  0  0  0  0  0  0  0  0  0  0  0
   -4.0038    0.5107   -0.2892 N   0  0  0  0  0  0  0  0  0  0  0  0
   -2.1930   -0.3860   -3.3007 C   0  0  0  0  0  0  0  0  0  0  0  0
   -0.9357   -0.6349   -3.8525 C   0  0  0  0  0  0  0  0  0  0  0  0
    0.2228   -0.0824   -3.2808 C   0  0  0  0  0  0  0  0  0  0  0  0
    1.8062   -0.4349   -4.0032 S   0  0  0  0  0  6  0  0  0  0  0  0
    1.6582   -1.2932   -5.4993 N   0  0  0  0  0  0  0  0  0  0  0  0
    2.5330    0.8523   -4.2734 O   0  0  0  0  0  0  0  0  0  0  0  0
    2.6103   -1.2723   -3.0491 O   0  0  0  0  0  0  0  0  0  0  0  0
    1.0356    1.8427   -0.5058 H   0  0  0  0  0  0  0  0  0  0  0  0
    2.0805    0.6133   -1.2745 H   0  0  0  0  0  0  0  0  0  0  0  0
    1.7106    2.1652   -2.1393 H   0  0  0  0  0  0  0  0  0  0  0  0
   -1.2795    1.6405   -0.7349 H   0  0  0  0  0  0  0  0  0  0  0  0
   -7.0432    1.2041    0.9494 H   0  0  0  0  0  0  0  0  0  0  0  0
   -3.6426   -0.3724    2.9316 H   0  0  0  0  0  0  0  0  0  0  0  0
   -1.7912   -1.8685    2.2120 H   0  0  0  0  0  0  0  0  0  0  0  0
   -1.1853   -0.1926    2.5693 H   0  0  0  0  0  0  0  0  0  0  0  0
    0.5909   -0.4762    0.8247 H   0  0  0  0  0  0  0  0  0  0  0  0
   -0.0011   -2.1286    0.4740 H   0  0  0  0  0  0  0  0  0  0  0  0
    1.7604    0.0242    2.9500 H   0  0  0  0  0  0  0  0  0  0  0  0
    3.1111   -0.8607    4.8171 H   0  0  0  0  0  0  0  0  0  0  0  0
    0.2985   -3.9528    2.1409 H   0  0  0  0  0  0  0  0  0  0  0  0
   -3.0702   -0.8277   -3.7581 H   0  0  0  0  0  0  0  0  0  0  0  0
   -0.8788   -1.2663   -4.7269 H   0  0  0  0  0  0  0  0  0  0  0  0
    1.0124   -0.7485   -6.1136 H   0  0  0  0  0  0  0  0  0  0  0  0
    1.2067   -2.2124   -5.2941 H   0  0  0  0  0  0  0  0  0  0  0  0
  1  2  1  0
  2  3  2  0
  3  4  1  0
  4  5  1  0
  5  6  2  0
  6  7  1  0
  7  8  2  0
  8  9  1  0
  9 10  2  0
 10 11  1  0
 11 12  2  0
 12 13  1  0
 13 14  1  0
 14 15  1  0
 15 16  1  0
 16 17  2  0
 17 18  1  0
 18 19  2  0
 19 20  1  0
 19 21  1  0
 21 22  1  0
 21 23  2  0
 12 24  1  0
  4 25  2  0
 25 26  1  0
 26 27  2  0
 27 28  1  0
 28 29  1  0
 28 30  2  0
 28 31  2  0
 27  2  1  0
 24  5  1  0
 24  8  1  0
 23 16  1  0
  1 32  1  0
  1 33  1  0
  1 34  1  0
  3 35  1  0
  9 36  1  0
 11 37  1  0
 14 38  1  0
 14 39  1  0
 15 40  1  0
 15 41  1  0
 17 42  1  0
 18 43  1  0
 23 44  1  0
 25 45  1  0
 26 46  1  0
 29 47  1  0
 29 48  1  0
M  END
>  <UniqueID>  (5) 
40

>  <SMILES>  (5) 
Cc1cc(-c2nnc3cncc(OCCc4ccc(F)c(F)c4)n23)ccc1S(N)(=O)=O

>  <Energy>  (5) 
97.33206126139908

>  <Genealogy>  (5) 
Cc1cc(-c2nnc3cncc(OCCc4ccc(F)c(F)c4)n23)ccc1S(N)(=O)=O (3D coordinates assigned)
Cc1cc(-c2nnc3cncc(OCCc4ccc(F)c(F)c4)n23)ccc1S(N)(=O)=O (optimized conformer: 97.33206126139908 kcal/mol)

$$$$
