untitled_line_9
     RDKit          3D

 56 59  0  0  0  0  0  0  0  0999 V2000
    3.0612   -1.0039   -3.3883 C   0  0  0  0  0  0  0  0  0  0  0  0
    2.5181    0.2761   -2.7599 C   0  0  0  0  0  0  0  0  0  0  0  0
    1.0649    0.5255   -3.1708 C   0  0  0  0  0  0  0  0  0  0  0  0
    0.5998    1.7976   -2.6032 N   0  0  0  0  0  0  0  0  0  0  0  0
   -0.8488    1.9646   -2.7834 C   0  0  0  0  0  0  0  0  0  0  0  0
   -1.5911    1.3004   -1.6557 C   0  0  0  0  0  0  0  0  0  0  0  0
   -2.3362    0.1307   -1.8760 C   0  0  0  0  0  0  0  0  0  0  0  0
   -2.9987   -0.4936   -0.8139 C   0  0  0  0  0  0  0  0  0  0  0  0
   -2.9069    0.0311    0.4837 C   0  0  0  0  0  0  0  0  0  0  0  0
   -3.6243   -0.6200    1.5966 C   0  0  0  0  0  0  0  0  0  0  0  0
   -4.9388   -0.9288    1.5581 N   0  0  0  0  0  4  0  0  0  0  0  0
   -5.3038   -1.3852    2.7501 N   0  0  0  0  0  0  0  0  0  0  0  0
   -4.1857   -1.3545    3.4995 C   0  0  0  0  0  0  0  0  0  0  0  0
   -4.0632   -1.7383    4.8287 C   0  0  0  0  0  0  0  0  0  0  0  0
   -2.8329   -1.6434    5.4116 N   0  0  0  0  0  4  0  0  0  0  0  0
   -1.7385   -1.2097    4.7122 C   0  0  0  0  0  0  0  0  0  0  0  0
   -1.8718   -0.8413    3.3544 C   0  0  0  0  0  0  0  0  0  0  0  0
   -0.7779   -0.4722    2.5595 O   0  0  0  0  0  0  0  0  0  0  0  0
    0.5587   -0.3278    3.0328 C   0  0  0  0  0  0  0  0  0  0  0  0
    1.4885   -0.0138    1.8607 C   0  0  0  0  0  0  0  0  0  0  0  0
    1.6497   -1.2147    0.9647 C   0  0  0  0  0  0  0  0  0  0  0  0
    0.6923   -1.4942   -0.0228 C   0  0  0  0  0  0  0  0  0  0  0  0
    0.8131   -2.6334   -0.8226 C   0  0  0  0  0  0  0  0  0  0  0  0
    1.8927   -3.5028   -0.6439 C   0  0  0  0  0  0  0  0  0  0  0  0
    2.0105   -4.6040   -1.4262 F   0  0  0  0  0  0  0  0  0  0  0  0
    2.8490   -3.2358    0.3413 C   0  0  0  0  0  0  0  0  0  0  0  0
    3.8942   -4.0810    0.5204 F   0  0  0  0  0  0  0  0  0  0  0  0
    2.7251   -2.0997    1.1484 C   0  0  0  0  0  0  0  0  0  0  0  0
   -3.1231   -0.8968    2.8196 N   0  0  0  0  0  0  0  0  0  0  0  0
   -2.1839    1.2143    0.6981 C   0  0  0  0  0  0  0  0  0  0  0  0
   -1.5216    1.8383   -0.3618 C   0  0  0  0  0  0  0  0  0  0  0  0
    4.0995   -1.1794   -3.0361 H   0  0  0  0  0  0  0  0  0  0  0  0
    3.0710   -0.9140   -4.4954 H   0  0  0  0  0  0  0  0  0  0  0  0
    2.4368   -1.8747   -3.1002 H   0  0  0  0  0  0  0  0  0  0  0  0
    3.1509    1.1307   -3.0838 H   0  0  0  0  0  0  0  0  0  0  0  0
    2.5807    0.1947   -1.6531 H   0  0  0  0  0  0  0  0  0  0  0  0
    0.9902    0.5553   -4.2819 H   0  0  0  0  0  0  0  0  0  0  0  0
    0.4404   -0.3152   -2.7963 H   0  0  0  0  0  0  0  0  0  0  0  0
    1.0762    2.5702   -3.1260 H   0  0  0  0  0  0  0  0  0  0  0  0
   -1.0978    3.0491   -2.7686 H   0  0  0  0  0  0  0  0  0  0  0  0
   -1.1828    1.5806   -3.7747 H   0  0  0  0  0  0  0  0  0  0  0  0
   -2.3993   -0.3016   -2.8667 H   0  0  0  0  0  0  0  0  0  0  0  0
   -3.5675   -1.3963   -1.0003 H   0  0  0  0  0  0  0  0  0  0  0  0
   -5.5887   -0.8010    0.7510 H   0  0  0  0  0  0  0  0  0  0  0  0
   -4.9165   -2.0999    5.3884 H   0  0  0  0  0  0  0  0  0  0  0  0
   -2.7211   -1.9218    6.4120 H   0  0  0  0  0  0  0  0  0  0  0  0
   -0.7782   -1.1710    5.2081 H   0  0  0  0  0  0  0  0  0  0  0  0
    0.5989    0.5077    3.7644 H   0  0  0  0  0  0  0  0  0  0  0  0
    0.8945   -1.2630    3.5325 H   0  0  0  0  0  0  0  0  0  0  0  0
    2.4789    0.2996    2.2569 H   0  0  0  0  0  0  0  0  0  0  0  0
    1.0826    0.8438    1.2803 H   0  0  0  0  0  0  0  0  0  0  0  0
   -0.1456   -0.8305   -0.1715 H   0  0  0  0  0  0  0  0  0  0  0  0
    0.0716   -2.8381   -1.5842 H   0  0  0  0  0  0  0  0  0  0  0  0
    3.4645   -1.9108    1.9169 H   0  0  0  0  0  0  0  0  0  0  0  0
   -2.1356    1.6572    1.6853 H   0  0  0  0  0  0  0  0  0  0  0  0
   -0.9537    2.7414   -0.1748 H   0  0  0  0  0  0  0  0  0  0  0  0
  1  2  1  0
  2  3  1  0
  3  4  1  0
  4  5  1  0
  5  6  1  0
  6  7  2  0
  7  8  1  0
  8  9  2  0
  9 10  1  0
 10 11  2  0
 11 12  1  0
 12 13  2  0
 13 14  1  0
 14 15  2  0
 15 16  1  0
 16 17  2  0
 17 18  1  0
 18 19  1  0
 19 20  1  0
 20 21  1  0
 21 22  2  0
 22 23  1  0
 23 24  2  0
 24 25  1  0
 24 26  1  0
 26 27  1  0
 26 28  2  0
 17 29  1  0
  9 30  1  0
 30 31  2  0
 31  6  1  0
 29 10  1  0
 29 13  1  0
 28 21  1  0
  1 32  1  0
  1 33  1  0
  1 34  1  0
  2 35  1  0
  2 36  1  0
  3 37  1  0
  3 38  1  0
  4 39  1  0
  5 40  1  0
  5 41  1  0
  7 42  1  0
  8 43  1  0
 11 44  1  0
 14 45  1  0
 15 46  1  0
 16 47  1  0
 19 48  1  0
 19 49  1  0
 20 50  1  0
 20 51  1  0
 22 52  1  0
 23 53  1  0
 28 54  1  0
 30 55  1  0
 31 56  1  0
M  CHG  2  11   1  15   1
M  END
>  <UniqueID>  (1) 
41

>  <SMILES>  (1) 
CCCNCc1ccc(-c2[nH+]nc3c[nH+]cc(OCCc4ccc(F)c(F)c4)n23)cc1

>  <Energy>  (1) 
92.91525480085303

>  <Genealogy>  (1) 
CCCNCc1ccc(-c2[nH+]nc3c[nH+]cc(OCCc4ccc(F)c(F)c4)n23)cc1 (protonated)
CCCNCc1ccc(-c2[nH+]nc3c[nH+]cc(OCCc4ccc(F)c(F)c4)n23)cc1 (3D coordinates assigned)
CCCNCc1ccc(-c2[nH+]nc3c[nH+]cc(OCCc4ccc(F)c(F)c4)n23)cc1 (optimized conformer: 92.91525480085303 kcal/mol)

$$$$
untitled_line_9
     RDKit          3D

 56 59  0  0  0  0  0  0  0  0999 V2000
    0.9514    3.7733   -2.6621 C   0  0  0  0  0  0  0  0  0  0  0  0
    1.6268    2.8804   -3.7034 C   0  0  0  0  0  0  0  0  0  0  0  0
    2.7929    2.0617   -3.1227 C   0  0  0  0  0  0  0  0  0  0  0  0
    2.3297    1.0647   -2.1441 N   0  0  0  0  0  4  0  0  0  0  0  0
    3.4275    0.1691   -1.7491 C   0  0  0  0  0  0  0  0  0  0  0  0
    2.9529   -0.7981   -0.6959 C   0  0  0  0  0  0  0  0  0  0  0  0
    2.4323   -2.0502   -1.0612 C   0  0  0  0  0  0  0  0  0  0  0  0
    1.8697   -2.8899   -0.0942 C   0  0  0  0  0  0  0  0  0  0  0  0
    1.7989   -2.4739    1.2412 C   0  0  0  0  0  0  0  0  0  0  0  0
    1.0680   -3.2819    2.2299 C   0  0  0  0  0  0  0  0  0  0  0  0
    1.4214   -4.5262    2.6159 N   0  0  0  0  0  4  0  0  0  0  0  0
    0.5516   -4.9479    3.5283 N   0  0  0  0  0  0  0  0  0  0  0  0
   -0.3302   -3.9391    3.6730 C   0  0  0  0  0  0  0  0  0  0  0  0
   -1.4483   -3.9105    4.4978 C   0  0  0  0  0  0  0  0  0  0  0  0
   -2.2399   -2.7990    4.4597 N   0  0  0  0  0  0  0  0  0  0  0  0
   -1.9629   -1.7406    3.6366 C   0  0  0  0  0  0  0  0  0  0  0  0
   -0.8268   -1.7861    2.7998 C   0  0  0  0  0  0  0  0  0  0  0  0
   -0.4983   -0.7653    1.8986 O   0  0  0  0  0  0  0  0  0  0  0  0
   -1.2546    0.4210    1.6886 C   0  0  0  0  0  0  0  0  0  0  0  0
   -0.5496    1.2636    0.6278 C   0  0  0  0  0  0  0  0  0  0  0  0
   -1.3274    2.5134    0.3206 C   0  0  0  0  0  0  0  0  0  0  0  0
   -1.0897    3.6924    1.0459 C   0  0  0  0  0  0  0  0  0  0  0  0
   -1.8143    4.8531    0.7588 C   0  0  0  0  0  0  0  0  0  0  0  0
   -2.7855    4.8431   -0.2470 C   0  0  0  0  0  0  0  0  0  0  0  0
   -3.4846    5.9717   -0.5230 F   0  0  0  0  0  0  0  0  0  0  0  0
   -3.0374    3.6688   -0.9640 C   0  0  0  0  0  0  0  0  0  0  0  0
   -3.9826    3.6555   -1.9360 F   0  0  0  0  0  0  0  0  0  0  0  0
   -2.3149    2.5057   -0.6787 C   0  0  0  0  0  0  0  0  0  0  0  0
   -0.0449   -2.8957    2.8825 N   0  0  0  0  0  0  0  0  0  0  0  0
    2.3499   -1.2400    1.6137 C   0  0  0  0  0  0  0  0  0  0  0  0
    2.9186   -0.4046    0.6501 C   0  0  0  0  0  0  0  0  0  0  0  0
    0.2067    4.4268   -3.1640 H   0  0  0  0  0  0  0  0  0  0  0  0
    1.7017    4.4156   -2.1531 H   0  0  0  0  0  0  0  0  0  0  0  0
    0.4168    3.1598   -1.9091 H   0  0  0  0  0  0  0  0  0  0  0  0
    2.0228    3.5274   -4.5163 H   0  0  0  0  0  0  0  0  0  0  0  0
    0.8724    2.1983   -4.1530 H   0  0  0  0  0  0  0  0  0  0  0  0
    3.5294    2.7500   -2.6495 H   0  0  0  0  0  0  0  0  0  0  0  0
    3.3019    1.5510   -3.9714 H   0  0  0  0  0  0  0  0  0  0  0  0
    1.9745    1.5594   -1.2927 H   0  0  0  0  0  0  0  0  0  0  0  0
    1.5570    0.4943   -2.5619 H   0  0  0  0  0  0  0  0  0  0  0  0
    3.7996   -0.3938   -2.6343 H   0  0  0  0  0  0  0  0  0  0  0  0
    4.2809    0.7607   -1.3468 H   0  0  0  0  0  0  0  0  0  0  0  0
    2.4333   -2.3621   -2.0981 H   0  0  0  0  0  0  0  0  0  0  0  0
    1.4418   -3.8382   -0.3952 H   0  0  0  0  0  0  0  0  0  0  0  0
    2.2409   -5.0779    2.2783 H   0  0  0  0  0  0  0  0  0  0  0  0
   -1.6935   -4.7415    5.1454 H   0  0  0  0  0  0  0  0  0  0  0  0
   -2.6267   -0.8872    3.6328 H   0  0  0  0  0  0  0  0  0  0  0  0
   -2.2758    0.1533    1.3391 H   0  0  0  0  0  0  0  0  0  0  0  0
   -1.3218    0.9952    2.6389 H   0  0  0  0  0  0  0  0  0  0  0  0
    0.4687    1.5292    0.9867 H   0  0  0  0  0  0  0  0  0  0  0  0
   -0.4217    0.6605   -0.2982 H   0  0  0  0  0  0  0  0  0  0  0  0
   -0.3418    3.7132    1.8291 H   0  0  0  0  0  0  0  0  0  0  0  0
   -1.6222    5.7607    1.3170 H   0  0  0  0  0  0  0  0  0  0  0  0
   -2.5189    1.6014   -1.2389 H   0  0  0  0  0  0  0  0  0  0  0  0
    2.3009   -0.9073    2.6434 H   0  0  0  0  0  0  0  0  0  0  0  0
    3.2988    0.5648    0.9473 H   0  0  0  0  0  0  0  0  0  0  0  0
  1  2  1  0
  2  3  1  0
  3  4  1  0
  4  5  1  0
  5  6  1  0
  6  7  2  0
  7  8  1  0
  8  9  2  0
  9 10  1  0
 10 11  2  0
 11 12  1  0
 12 13  2  0
 13 14  1  0
 14 15  2  0
 15 16  1  0
 16 17  2  0
 17 18  1  0
 18 19  1  0
 19 20  1  0
 20 21  1  0
 21 22  2  0
 22 23  1  0
 23 24  2  0
 24 25  1  0
 24 26  1  0
 26 27  1  0
 26 28  2  0
 17 29  1  0
  9 30  1  0
 30 31  2  0
 31  6  1  0
 29 10  1  0
 29 13  1  0
 28 21  1  0
  1 32  1  0
  1 33  1  0
  1 34  1  0
  2 35  1  0
  2 36  1  0
  3 37  1  0
  3 38  1  0
  4 39  1  0
  4 40  1  0
  5 41  1  0
  5 42  1  0
  7 43  1  0
  8 44  1  0
 11 45  1  0
 14 46  1  0
 16 47  1  0
 19 48  1  0
 19 49  1  0
 20 50  1  0
 20 51  1  0
 22 52  1  0
 23 53  1  0
 28 54  1  0
 30 55  1  0
 31 56  1  0
M  CHG  2   4   1  11   1
M  END
>  <UniqueID>  (2) 
42

>  <SMILES>  (2) 
CCC[NH2+]Cc1ccc(-c2[nH+]nc3cncc(OCCc4ccc(F)c(F)c4)n23)cc1

>  <Energy>  (2) 
97.89888919724207

>  <Genealogy>  (2) 
CCC[NH2+]Cc1ccc(-c2[nH+]nc3cncc(OCCc4ccc(F)c(F)c4)n23)cc1 (protonated)
CCC[NH2+]Cc1ccc(-c2[nH+]nc3cncc(OCCc4ccc(F)c(F)c4)n23)cc1 (3D coordinates assigned)
CCC[NH2+]Cc1ccc(-c2[nH+]nc3cncc(OCCc4ccc(F)c(F)c4)n23)cc1 (optimized conformer: 97.89888919724207 kcal/mol)

$$$$
untitled_line_9
     RDKit          3D

 54 57  0  0  0  0  0  0  0  0999 V2000
   -3.9697   -5.5147   -2.6266 C   0  0  0  0  0  0  0  0  0  0  0  0
   -4.2757   -4.4689   -1.5583 C   0  0  0  0  0  0  0  0  0  0  0  0
   -2.9901   -3.8874   -0.9659 C   0  0  0  0  0  0  0  0  0  0  0  0
   -3.3222   -2.8961    0.0658 N   0  0  0  0  0  0  0  0  0  0  0  0
   -2.1355   -2.4782    0.8282 C   0  0  0  0  0  0  0  0  0  0  0  0
   -1.1831   -1.6551   -0.0066 C   0  0  0  0  0  0  0  0  0  0  0  0
   -1.4650   -0.3071   -0.2754 C   0  0  0  0  0  0  0  0  0  0  0  0
   -0.5960    0.4512   -1.0643 C   0  0  0  0  0  0  0  0  0  0  0  0
    0.5755   -0.1234   -1.5807 C   0  0  0  0  0  0  0  0  0  0  0  0
    1.4951    0.6678   -2.4185 C   0  0  0  0  0  0  0  0  0  0  0  0
    1.9057    0.2714   -3.6450 N   0  0  0  0  0  0  0  0  0  0  0  0
    2.6887    1.2274   -4.1349 N   0  0  0  0  0  0  0  0  0  0  0  0
    2.7417    2.1846   -3.1920 C   0  0  0  0  0  0  0  0  0  0  0  0
    3.4588    3.3731   -3.2468 C   0  0  0  0  0  0  0  0  0  0  0  0
    3.4135    4.1949   -2.1595 N   0  0  0  0  0  0  0  0  0  0  0  0
    2.7000    3.8696   -1.0385 C   0  0  0  0  0  0  0  0  0  0  0  0
    1.9842    2.6520   -0.9923 C   0  0  0  0  0  0  0  0  0  0  0  0
    1.2825    2.2292    0.1443 O   0  0  0  0  0  0  0  0  0  0  0  0
    1.1574    2.9819    1.3458 C   0  0  0  0  0  0  0  0  0  0  0  0
    0.2868    2.2065    2.3308 C   0  0  0  0  0  0  0  0  0  0  0  0
    0.1263    2.9713    3.6166 C   0  0  0  0  0  0  0  0  0  0  0  0
    1.0555    2.8102    4.6576 C   0  0  0  0  0  0  0  0  0  0  0  0
    0.9229    3.5451    5.8398 C   0  0  0  0  0  0  0  0  0  0  0  0
   -0.1310    4.4517    5.9876 C   0  0  0  0  0  0  0  0  0  0  0  0
   -0.2549    5.1632    7.1353 F   0  0  0  0  0  0  0  0  0  0  0  0
   -1.0526    4.6275    4.9501 C   0  0  0  0  0  0  0  0  0  0  0  0
   -2.0709    5.5122    5.0883 F   0  0  0  0  0  0  0  0  0  0  0  0
   -0.9227    3.8938    3.7662 C   0  0  0  0  0  0  0  0  0  0  0  0
    2.0208    1.8717   -2.1080 N   0  0  0  0  0  0  0  0  0  0  0  0
    0.8396   -1.4795   -1.3426 C   0  0  0  0  0  0  0  0  0  0  0  0
   -0.0305   -2.2395   -0.5554 C   0  0  0  0  0  0  0  0  0  0  0  0
   -4.9203   -5.9156   -3.0372 H   0  0  0  0  0  0  0  0  0  0  0  0
   -3.3883   -5.0595   -3.4566 H   0  0  0  0  0  0  0  0  0  0  0  0
   -3.3893   -6.3549   -2.1894 H   0  0  0  0  0  0  0  0  0  0  0  0
   -4.8787   -3.6534   -2.0137 H   0  0  0  0  0  0  0  0  0  0  0  0
   -4.8760   -4.9405   -0.7500 H   0  0  0  0  0  0  0  0  0  0  0  0
   -2.3950   -4.7169   -0.5222 H   0  0  0  0  0  0  0  0  0  0  0  0
   -2.3955   -3.4117   -1.7779 H   0  0  0  0  0  0  0  0  0  0  0  0
   -3.7488   -2.0566   -0.3932 H   0  0  0  0  0  0  0  0  0  0  0  0
   -1.6209   -3.3660    1.2586 H   0  0  0  0  0  0  0  0  0  0  0  0
   -2.4698   -1.8696    1.6960 H   0  0  0  0  0  0  0  0  0  0  0  0
   -2.3602    0.1547    0.1223 H   0  0  0  0  0  0  0  0  0  0  0  0
   -0.8395    1.4852   -1.2758 H   0  0  0  0  0  0  0  0  0  0  0  0
    4.0416    3.6411   -4.1180 H   0  0  0  0  0  0  0  0  0  0  0  0
    2.7088    4.5470   -0.1963 H   0  0  0  0  0  0  0  0  0  0  0  0
    2.1647    3.1476    1.7871 H   0  0  0  0  0  0  0  0  0  0  0  0
    0.6824    3.9624    1.1222 H   0  0  0  0  0  0  0  0  0  0  0  0
   -0.7095    2.0179    1.8735 H   0  0  0  0  0  0  0  0  0  0  0  0
    0.7493    1.2153    2.5320 H   0  0  0  0  0  0  0  0  0  0  0  0
    1.8816    2.1178    4.5527 H   0  0  0  0  0  0  0  0  0  0  0  0
    1.6400    3.4134    6.6399 H   0  0  0  0  0  0  0  0  0  0  0  0
   -1.6367    4.0443    2.9658 H   0  0  0  0  0  0  0  0  0  0  0  0
    1.7263   -1.9454   -1.7551 H   0  0  0  0  0  0  0  0  0  0  0  0
    0.1927   -3.2840   -0.3767 H   0  0  0  0  0  0  0  0  0  0  0  0
  1  2  1  0
  2  3  1  0
  3  4  1  0
  4  5  1  0
  5  6  1  0
  6  7  2  0
  7  8  1  0
  8  9  2  0
  9 10  1  0
 10 11  2  0
 11 12  1  0
 12 13  2  0
 13 14  1  0
 14 15  2  0
 15 16  1  0
 16 17  2  0
 17 18  1  0
 18 19  1  0
 19 20  1  0
 20 21  1  0
 21 22  2  0
 22 23  1  0
 23 24  2  0
 24 25  1  0
 24 26  1  0
 26 27  1  0
 26 28  2  0
 17 29  1  0
  9 30  1  0
 30 31  2  0
 31  6  1  0
 29 10  1  0
 29 13  1  0
 28 21  1  0
  1 32  1  0
  1 33  1  0
  1 34  1  0
  2 35  1  0
  2 36  1  0
  3 37  1  0
  3 38  1  0
  4 39  1  0
  5 40  1  0
  5 41  1  0
  7 42  1  0
  8 43  1  0
 14 44  1  0
 16 45  1  0
 19 46  1  0
 19 47  1  0
 20 48  1  0
 20 49  1  0
 22 50  1  0
 23 51  1  0
 28 52  1  0
 30 53  1  0
 31 54  1  0
M  END
>  <UniqueID>  (3) 
43

>  <SMILES>  (3) 
CCCNCc1ccc(-c2nnc3cncc(OCCc4ccc(F)c(F)c4)n23)cc1

>  <Energy>  (3) 
97.22750689789522

>  <Genealogy>  (3) 
CCCNCc1ccc(-c2nnc3cncc(OCCc4ccc(F)c(F)c4)n23)cc1 (3D coordinates assigned)
CCCNCc1ccc(-c2nnc3cncc(OCCc4ccc(F)c(F)c4)n23)cc1 (optimized conformer: 97.22750689789522 kcal/mol)

$$$$
untitled_line_9
     RDKit          3D

 55 58  0  0  0  0  0  0  0  0999 V2000
    1.3325    0.3380    3.9673 C   0  0  0  0  0  0  0  0  0  0  0  0
    1.4549    1.8258    4.2837 C   0  0  0  0  0  0  0  0  0  0  0  0
    0.7687    2.6942    3.2238 C   0  0  0  0  0  0  0  0  0  0  0  0
   -0.6852    2.4737    3.2279 N   0  0  0  0  0  0  0  0  0  0  0  0
   -1.3482    3.2650    2.1810 C   0  0  0  0  0  0  0  0  0  0  0  0
   -1.4094    2.4873    0.8936 C   0  0  0  0  0  0  0  0  0  0  0  0
   -2.4668    1.5941    0.6562 C   0  0  0  0  0  0  0  0  0  0  0  0
   -2.5332    0.8822   -0.5454 C   0  0  0  0  0  0  0  0  0  0  0  0
   -1.5192    1.0182   -1.5025 C   0  0  0  0  0  0  0  0  0  0  0  0
   -1.5891    0.2662   -2.7661 C   0  0  0  0  0  0  0  0  0  0  0  0
   -2.6376    0.3334   -3.6177 N   0  0  0  0  0  0  0  0  0  0  0  0
   -2.3526   -0.4363   -4.6640 N   0  0  0  0  0  0  0  0  0  0  0  0
   -1.1361   -0.9571   -4.4232 C   0  0  0  0  0  0  0  0  0  0  0  0
   -0.4400   -1.8614   -5.2152 C   0  0  0  0  0  0  0  0  0  0  0  0
    0.7594   -2.3234   -4.7546 N   0  0  0  0  0  4  0  0  0  0  0  0
    1.2599   -1.9351   -3.5401 C   0  0  0  0  0  0  0  0  0  0  0  0
    0.5337   -1.0253   -2.7407 C   0  0  0  0  0  0  0  0  0  0  0  0
    0.9452   -0.6437   -1.4557 O   0  0  0  0  0  0  0  0  0  0  0  0
    1.8259   -1.3920   -0.6176 C   0  0  0  0  0  0  0  0  0  0  0  0
    1.2058   -2.7370   -0.2139 C   0  0  0  0  0  0  0  0  0  0  0  0
   -0.1949   -2.5632    0.3171 C   0  0  0  0  0  0  0  0  0  0  0  0
   -1.3044   -2.7989   -0.5128 C   0  0  0  0  0  0  0  0  0  0  0  0
   -2.6004   -2.5920   -0.0327 C   0  0  0  0  0  0  0  0  0  0  0  0
   -2.7998   -2.1417    1.2753 C   0  0  0  0  0  0  0  0  0  0  0  0
   -4.0586   -1.9318    1.7334 F   0  0  0  0  0  0  0  0  0  0  0  0
   -1.7015   -1.9014    2.1067 C   0  0  0  0  0  0  0  0  0  0  0  0
   -1.8947   -1.4637    3.3753 F   0  0  0  0  0  0  0  0  0  0  0  0
   -0.4031   -2.1118    1.6302 C   0  0  0  0  0  0  0  0  0  0  0  0
   -0.6316   -0.5472   -3.2543 N   0  0  0  0  0  0  0  0  0  0  0  0
   -0.4598    1.9056   -1.2656 C   0  0  0  0  0  0  0  0  0  0  0  0
   -0.4064    2.6376   -0.0769 C   0  0  0  0  0  0  0  0  0  0  0  0
    1.8738   -0.2518    4.7364 H   0  0  0  0  0  0  0  0  0  0  0  0
    0.2665    0.0301    3.9726 H   0  0  0  0  0  0  0  0  0  0  0  0
    1.7764    0.1178    2.9730 H   0  0  0  0  0  0  0  0  0  0  0  0
    1.0145    2.0301    5.2837 H   0  0  0  0  0  0  0  0  0  0  0  0
    2.5329    2.0937    4.3242 H   0  0  0  0  0  0  0  0  0  0  0  0
    0.9941    3.7619    3.4454 H   0  0  0  0  0  0  0  0  0  0  0  0
    1.1967    2.4467    2.2286 H   0  0  0  0  0  0  0  0  0  0  0  0
   -1.0511    2.8047    4.1519 H   0  0  0  0  0  0  0  0  0  0  0  0
   -2.3872    3.5029    2.5023 H   0  0  0  0  0  0  0  0  0  0  0  0
   -0.8462    4.2474    2.0248 H   0  0  0  0  0  0  0  0  0  0  0  0
   -3.2465    1.4589    1.3956 H   0  0  0  0  0  0  0  0  0  0  0  0
   -3.3654    0.2118   -0.7214 H   0  0  0  0  0  0  0  0  0  0  0  0
   -0.8387   -2.1992   -6.1634 H   0  0  0  0  0  0  0  0  0  0  0  0
    1.3001   -3.0026   -5.3352 H   0  0  0  0  0  0  0  0  0  0  0  0
    2.2042   -2.3401   -3.2040 H   0  0  0  0  0  0  0  0  0  0  0  0
    2.8031   -1.5495   -1.1203 H   0  0  0  0  0  0  0  0  0  0  0  0
    2.0200   -0.7963    0.2998 H   0  0  0  0  0  0  0  0  0  0  0  0
    1.2034   -3.4240   -1.0871 H   0  0  0  0  0  0  0  0  0  0  0  0
    1.8430   -3.2110    0.5639 H   0  0  0  0  0  0  0  0  0  0  0  0
   -1.1667   -3.1365   -1.5325 H   0  0  0  0  0  0  0  0  0  0  0  0
   -3.4497   -2.7712   -0.6792 H   0  0  0  0  0  0  0  0  0  0  0  0
    0.4410   -1.9252    2.2805 H   0  0  0  0  0  0  0  0  0  0  0  0
    0.3188    2.0390   -2.0068 H   0  0  0  0  0  0  0  0  0  0  0  0
    0.4138    3.3262    0.0827 H   0  0  0  0  0  0  0  0  0  0  0  0
  1  2  1  0
  2  3  1  0
  3  4  1  0
  4  5  1  0
  5  6  1  0
  6  7  2  0
  7  8  1  0
  8  9  2  0
  9 10  1  0
 10 11  2  0
 11 12  1  0
 12 13  2  0
 13 14  1  0
 14 15  2  0
 15 16  1  0
 16 17  2  0
 17 18  1  0
 18 19  1  0
 19 20  1  0
 20 21  1  0
 21 22  2  0
 22 23  1  0
 23 24  2  0
 24 25  1  0
 24 26  1  0
 26 27  1  0
 26 28  2  0
 17 29  1  0
  9 30  1  0
 30 31  2  0
 31  6  1  0
 29 10  1  0
 29 13  1  0
 28 21  1  0
  1 32  1  0
  1 33  1  0
  1 34  1  0
  2 35  1  0
  2 36  1  0
  3 37  1  0
  3 38  1  0
  4 39  1  0
  5 40  1  0
  5 41  1  0
  7 42  1  0
  8 43  1  0
 14 44  1  0
 15 45  1  0
 16 46  1  0
 19 47  1  0
 19 48  1  0
 20 49  1  0
 20 50  1  0
 22 51  1  0
 23 52  1  0
 28 53  1  0
 30 54  1  0
 31 55  1  0
M  CHG  1  15   1
M  END
>  <UniqueID>  (4) 
44

>  <SMILES>  (4) 
CCCNCc1ccc(-c2nnc3c[nH+]cc(OCCc4ccc(F)c(F)c4)n23)cc1

>  <Energy>  (4) 
94.21233833696178

>  <Genealogy>  (4) 
CCCNCc1ccc(-c2nnc3c[nH+]cc(OCCc4ccc(F)c(F)c4)n23)cc1 (protonated)
CCCNCc1ccc(-c2nnc3c[nH+]cc(OCCc4ccc(F)c(F)c4)n23)cc1 (3D coordinates assigned)
CCCNCc1ccc(-c2nnc3c[nH+]cc(OCCc4ccc(F)c(F)c4)n23)cc1 (optimized conformer: 94.21233833696178 kcal/mol)

$$$$
untitled_line_9
     RDKit          3D

 57 60  0  0  0  0  0  0  0  0999 V2000
    1.5790   -2.5342    6.8478 C   0  0  0  0  0  0  0  0  0  0  0  0
    1.7001   -1.7539    5.5419 C   0  0  0  0  0  0  0  0  0  0  0  0
    1.1746   -2.5780    4.3534 C   0  0  0  0  0  0  0  0  0  0  0  0
    1.1722   -1.8075    3.0968 N   0  0  0  0  0  4  0  0  0  0  0  0
    2.5149   -1.7058    2.5006 C   0  0  0  0  0  0  0  0  0  0  0  0
    2.4458   -0.9786    1.1832 C   0  0  0  0  0  0  0  0  0  0  0  0
    2.1932   -1.6864   -0.0023 C   0  0  0  0  0  0  0  0  0  0  0  0
    2.0343   -1.0029   -1.2108 C   0  0  0  0  0  0  0  0  0  0  0  0
    2.1029    0.3981   -1.2458 C   0  0  0  0  0  0  0  0  0  0  0  0
    1.9521    1.1252   -2.5197 C   0  0  0  0  0  0  0  0  0  0  0  0
    2.8619    2.0075   -2.9869 N   0  0  0  0  0  4  0  0  0  0  0  0
    2.4841    2.4089   -4.1943 N   0  0  0  0  0  0  0  0  0  0  0  0
    1.3291    1.7614   -4.4381 C   0  0  0  0  0  0  0  0  0  0  0  0
    0.5465    1.8588   -5.5811 C   0  0  0  0  0  0  0  0  0  0  0  0
   -0.6056    1.1297   -5.6320 N   0  0  0  0  0  4  0  0  0  0  0  0
   -1.0025    0.3404   -4.5860 C   0  0  0  0  0  0  0  0  0  0  0  0
   -0.2068    0.2629   -3.4201 C   0  0  0  0  0  0  0  0  0  0  0  0
   -0.5966   -0.4663   -2.2871 O   0  0  0  0  0  0  0  0  0  0  0  0
   -1.7563   -1.2932   -2.2213 C   0  0  0  0  0  0  0  0  0  0  0  0
   -1.8815   -1.9066   -0.8271 C   0  0  0  0  0  0  0  0  0  0  0  0
   -2.2682   -0.8670    0.1927 C   0  0  0  0  0  0  0  0  0  0  0  0
   -3.6219   -0.6056    0.4623 C   0  0  0  0  0  0  0  0  0  0  0  0
   -3.9780    0.3767    1.3922 C   0  0  0  0  0  0  0  0  0  0  0  0
   -2.9872    1.1107    2.0515 C   0  0  0  0  0  0  0  0  0  0  0  0
   -3.3368    2.0628    2.9515 F   0  0  0  0  0  0  0  0  0  0  0  0
   -1.6379    0.8658    1.7775 C   0  0  0  0  0  0  0  0  0  0  0  0
   -0.6740    1.5817    2.4077 F   0  0  0  0  0  0  0  0  0  0  0  0
   -1.2809   -0.1154    0.8482 C   0  0  0  0  0  0  0  0  0  0  0  0
    0.9608    0.9647   -3.4225 N   0  0  0  0  0  0  0  0  0  0  0  0
    2.3802    1.1042   -0.0668 C   0  0  0  0  0  0  0  0  0  0  0  0
    2.5370    0.4216    1.1430 C   0  0  0  0  0  0  0  0  0  0  0  0
    0.5150   -2.7756    7.0566 H   0  0  0  0  0  0  0  0  0  0  0  0
    2.1648   -3.4763    6.7898 H   0  0  0  0  0  0  0  0  0  0  0  0
    1.9738   -1.9209    7.6853 H   0  0  0  0  0  0  0  0  0  0  0  0
    2.7682   -1.4945    5.3884 H   0  0  0  0  0  0  0  0  0  0  0  0
    1.1177   -0.8115    5.6335 H   0  0  0  0  0  0  0  0  0  0  0  0
    0.1297   -2.8896    4.5794 H   0  0  0  0  0  0  0  0  0  0  0  0
    1.7740   -3.5100    4.2418 H   0  0  0  0  0  0  0  0  0  0  0  0
    0.5425   -2.2996    2.4194 H   0  0  0  0  0  0  0  0  0  0  0  0
    0.7818   -0.8503    3.2646 H   0  0  0  0  0  0  0  0  0  0  0  0
    3.2033   -1.1582    3.1793 H   0  0  0  0  0  0  0  0  0  0  0  0
    2.9440   -2.7204    2.3395 H   0  0  0  0  0  0  0  0  0  0  0  0
    2.1056   -2.7656    0.0118 H   0  0  0  0  0  0  0  0  0  0  0  0
    1.8552   -1.5666   -2.1181 H   0  0  0  0  0  0  0  0  0  0  0  0
    3.7406    2.3117   -2.5118 H   0  0  0  0  0  0  0  0  0  0  0  0
    0.8396    2.4925   -6.4085 H   0  0  0  0  0  0  0  0  0  0  0  0
   -1.2059    1.1858   -6.4849 H   0  0  0  0  0  0  0  0  0  0  0  0
   -1.9342   -0.2035   -4.6619 H   0  0  0  0  0  0  0  0  0  0  0  0
   -1.6634   -2.1115   -2.9677 H   0  0  0  0  0  0  0  0  0  0  0  0
   -2.6671   -0.6976   -2.4508 H   0  0  0  0  0  0  0  0  0  0  0  0
   -2.6503   -2.7096   -0.8527 H   0  0  0  0  0  0  0  0  0  0  0  0
   -0.9194   -2.3867   -0.5426 H   0  0  0  0  0  0  0  0  0  0  0  0
   -4.3996   -1.1615   -0.0466 H   0  0  0  0  0  0  0  0  0  0  0  0
   -5.0228    0.5700    1.5988 H   0  0  0  0  0  0  0  0  0  0  0  0
   -0.2380   -0.2893    0.6364 H   0  0  0  0  0  0  0  0  0  0  0  0
    2.4507    2.1849   -0.0795 H   0  0  0  0  0  0  0  0  0  0  0  0
    2.7135    0.9852    2.0507 H   0  0  0  0  0  0  0  0  0  0  0  0
  1  2  1  0
  2  3  1  0
  3  4  1  0
  4  5  1  0
  5  6  1  0
  6  7  2  0
  7  8  1  0
  8  9  2  0
  9 10  1  0
 10 11  2  0
 11 12  1  0
 12 13  2  0
 13 14  1  0
 14 15  2  0
 15 16  1  0
 16 17  2  0
 17 18  1  0
 18 19  1  0
 19 20  1  0
 20 21  1  0
 21 22  2  0
 22 23  1  0
 23 24  2  0
 24 25  1  0
 24 26  1  0
 26 27  1  0
 26 28  2  0
 17 29  1  0
  9 30  1  0
 30 31  2  0
 31  6  1  0
 29 10  1  0
 29 13  1  0
 28 21  1  0
  1 32  1  0
  1 33  1  0
  1 34  1  0
  2 35  1  0
  2 36  1  0
  3 37  1  0
  3 38  1  0
  4 39  1  0
  4 40  1  0
  5 41  1  0
  5 42  1  0
  7 43  1  0
  8 44  1  0
 11 45  1  0
 14 46  1  0
 15 47  1  0
 16 48  1  0
 19 49  1  0
 19 50  1  0
 20 51  1  0
 20 52  1  0
 22 53  1  0
 23 54  1  0
 28 55  1  0
 30 56  1  0
 31 57  1  0
M  CHG  3   4   1  11   1  15   1
M  END
>  <UniqueID>  (5) 
45

>  <SMILES>  (5) 
CCC[NH2+]Cc1ccc(-c2[nH+]nc3c[nH+]cc(OCCc4ccc(F)c(F)c4)n23)cc1

>  <Energy>  (5) 
97.4573055704759

>  <Genealogy>  (5) 
CCC[NH2+]Cc1ccc(-c2[nH+]nc3c[nH+]cc(OCCc4ccc(F)c(F)c4)n23)cc1 (protonated)
CCC[NH2+]Cc1ccc(-c2[nH+]nc3c[nH+]cc(OCCc4ccc(F)c(F)c4)n23)cc1 (3D coordinates assigned)
CCC[NH2+]Cc1ccc(-c2[nH+]nc3c[nH+]cc(OCCc4ccc(F)c(F)c4)n23)cc1 (optimized conformer: 97.4573055704759 kcal/mol)

$$$$
