untitled_line_3
     RDKit          3D

 47 50  0  0  0  0  0  0  0  0999 V2000
    4.0060   -1.3014   -3.1945 C   0  0  0  0  0  0  0  0  0  0  0  0
    3.6312   -1.8923   -1.9542 O   0  0  0  0  0  0  0  0  0  0  0  0
    2.9901   -1.2085   -0.9094 C   0  0  0  0  0  0  0  0  0  0  0  0
    2.6580    0.1554   -1.0028 C   0  0  0  0  0  0  0  0  0  0  0  0
    2.0106    0.7862    0.0648 C   0  0  0  0  0  0  0  0  0  0  0  0
    1.6796    2.2207   -0.0192 C   0  0  0  0  0  0  0  0  0  0  0  0
    2.5810    3.1695   -0.3618 N   0  0  0  0  0  0  0  0  0  0  0  0
    1.9693    4.3477   -0.2941 N   0  0  0  0  0  0  0  0  0  0  0  0
    0.7053    4.0895    0.0847 C   0  0  0  0  0  0  0  0  0  0  0  0
   -0.3166    5.0120    0.2705 C   0  0  0  0  0  0  0  0  0  0  0  0
   -1.5470    4.5380    0.6181 N   0  0  0  0  0  0  0  0  0  0  0  0
   -1.7880    3.2000    0.7706 C   0  0  0  0  0  0  0  0  0  0  0  0
   -0.7422    2.2717    0.5665 C   0  0  0  0  0  0  0  0  0  0  0  0
   -0.9345    0.8858    0.6440 O   0  0  0  0  0  0  0  0  0  0  0  0
   -2.1664    0.2576    0.9815 C   0  0  0  0  0  0  0  0  0  0  0  0
   -1.9710   -1.2560    0.9817 C   0  0  0  0  0  0  0  0  0  0  0  0
   -3.2503   -1.9587    1.3471 C   0  0  0  0  0  0  0  0  0  0  0  0
   -3.5474   -2.2352    2.6919 C   0  0  0  0  0  0  0  0  0  0  0  0
   -4.7508   -2.8602    3.0328 C   0  0  0  0  0  0  0  0  0  0  0  0
   -5.6691   -3.2046    2.0365 C   0  0  0  0  0  0  0  0  0  0  0  0
   -6.8356   -3.8092    2.3720 F   0  0  0  0  0  0  0  0  0  0  0  0
   -5.3862   -2.9203    0.6965 C   0  0  0  0  0  0  0  0  0  0  0  0
   -6.2791   -3.2463   -0.2706 F   0  0  0  0  0  0  0  0  0  0  0  0
   -4.1831   -2.2952    0.3521 C   0  0  0  0  0  0  0  0  0  0  0  0
    0.4829    2.7805    0.2575 N   0  0  0  0  0  0  0  0  0  0  0  0
    1.7406    0.0590    1.2293 C   0  0  0  0  0  0  0  0  0  0  0  0
    2.0651   -1.3018    1.2875 C   0  0  0  0  0  0  0  0  0  0  0  0
    1.7953   -2.0899    2.5350 C   0  0  0  0  0  0  0  0  0  0  0  0
    2.6854   -1.8953    0.2274 N   0  0  0  0  0  4  0  0  0  0  0  0
    3.1068   -0.9205   -3.7232 H   0  0  0  0  0  0  0  0  0  0  0  0
    4.7273   -0.4750   -3.0214 H   0  0  0  0  0  0  0  0  0  0  0  0
    4.4923   -2.0698   -3.8297 H   0  0  0  0  0  0  0  0  0  0  0  0
    2.8873    0.7235   -1.8949 H   0  0  0  0  0  0  0  0  0  0  0  0
   -0.1499    6.0729    0.1397 H   0  0  0  0  0  0  0  0  0  0  0  0
   -2.7848    2.8732    1.0310 H   0  0  0  0  0  0  0  0  0  0  0  0
   -2.9417    0.5331    0.2334 H   0  0  0  0  0  0  0  0  0  0  0  0
   -2.4884    0.5914    1.9924 H   0  0  0  0  0  0  0  0  0  0  0  0
   -1.1709   -1.5244    1.7052 H   0  0  0  0  0  0  0  0  0  0  0  0
   -1.6291   -1.5849   -0.0241 H   0  0  0  0  0  0  0  0  0  0  0  0
   -2.8485   -1.9659    3.4742 H   0  0  0  0  0  0  0  0  0  0  0  0
   -4.9721   -3.0743    4.0705 H   0  0  0  0  0  0  0  0  0  0  0  0
   -3.9780   -2.0718   -0.6877 H   0  0  0  0  0  0  0  0  0  0  0  0
    1.2854    0.5478    2.0829 H   0  0  0  0  0  0  0  0  0  0  0  0
    2.7207   -2.1413    3.1454 H   0  0  0  0  0  0  0  0  0  0  0  0
    0.9890   -1.6212    3.1386 H   0  0  0  0  0  0  0  0  0  0  0  0
    1.4752   -3.1200    2.2720 H   0  0  0  0  0  0  0  0  0  0  0  0
    2.9435   -2.9066    0.2846 H   0  0  0  0  0  0  0  0  0  0  0  0
  1  2  1  0
  2  3  1  0
  3  4  2  0
  4  5  1  0
  5  6  1  0
  6  7  2  0
  7  8  1  0
  8  9  2  0
  9 10  1  0
 10 11  2  0
 11 12  1  0
 12 13  2  0
 13 14  1  0
 14 15  1  0
 15 16  1  0
 16 17  1  0
 17 18  2  0
 18 19  1  0
 19 20  2  0
 20 21  1  0
 20 22  1  0
 22 23  1  0
 22 24  2  0
 13 25  1  0
  5 26  2  0
 26 27  1  0
 27 28  1  0
 27 29  2  0
 29  3  1  0
 25  6  1  0
 25  9  1  0
 24 17  1  0
  1 30  1  0
  1 31  1  0
  1 32  1  0
  4 33  1  0
 10 34  1  0
 12 35  1  0
 15 36  1  0
 15 37  1  0
 16 38  1  0
 16 39  1  0
 18 40  1  0
 19 41  1  0
 24 42  1  0
 26 43  1  0
 28 44  1  0
 28 45  1  0
 28 46  1  0
 29 47  1  0
M  CHG  1  29   1
M  END
>  <UniqueID>  (1) 
11

>  <SMILES>  (1) 
COc1cc(-c2nnc3cncc(OCCc4ccc(F)c(F)c4)n23)cc(C)[nH+]1

>  <Energy>  (1) 
94.39310146448253

>  <Genealogy>  (1) 
COc1cc(-c2nnc3cncc(OCCc4ccc(F)c(F)c4)n23)cc(C)[nH+]1 (protonated)
COc1cc(-c2nnc3cncc(OCCc4ccc(F)c(F)c4)n23)cc(C)[nH+]1 (3D coordinates assigned)
COc1cc(-c2nnc3cncc(OCCc4ccc(F)c(F)c4)n23)cc(C)[nH+]1 (optimized conformer: 94.39310146448253 kcal/mol)

$$$$
untitled_line_3
     RDKit          3D

 48 51  0  0  0  0  0  0  0  0999 V2000
   -1.2827    4.0860    1.4668 C   0  0  0  0  0  0  0  0  0  0  0  0
    0.0867    3.7672    1.2410 O   0  0  0  0  0  0  0  0  0  0  0  0
    0.6402    2.4873    1.3996 C   0  0  0  0  0  0  0  0  0  0  0  0
   -0.1219    1.3969    1.8549 C   0  0  0  0  0  0  0  0  0  0  0  0
    0.4679    0.1321    1.9586 C   0  0  0  0  0  0  0  0  0  0  0  0
   -0.3128   -1.0326    2.4172 C   0  0  0  0  0  0  0  0  0  0  0  0
    0.1117   -1.8621    3.4008 N   0  0  0  0  0  0  0  0  0  0  0  0
   -0.8061   -2.8126    3.5214 N   0  0  0  0  0  4  0  0  0  0  0  0
   -1.7593   -2.5648    2.6104 C   0  0  0  0  0  0  0  0  0  0  0  0
   -2.8790   -3.3374    2.3286 C   0  0  0  0  0  0  0  0  0  0  0  0
   -3.6806   -2.9424    1.2995 N   0  0  0  0  0  0  0  0  0  0  0  0
   -3.4021   -1.8297    0.5542 C   0  0  0  0  0  0  0  0  0  0  0  0
   -2.2573   -1.0550    0.8499 C   0  0  0  0  0  0  0  0  0  0  0  0
   -1.8970    0.0799    0.1095 O   0  0  0  0  0  0  0  0  0  0  0  0
   -2.3904    0.4222   -1.1844 C   0  0  0  0  0  0  0  0  0  0  0  0
   -1.8197   -0.5167   -2.2511 C   0  0  0  0  0  0  0  0  0  0  0  0
   -0.3135   -0.5458   -2.1964 C   0  0  0  0  0  0  0  0  0  0  0  0
    0.3534   -1.5786   -1.5156 C   0  0  0  0  0  0  0  0  0  0  0  0
    1.7493   -1.5866   -1.4414 C   0  0  0  0  0  0  0  0  0  0  0  0
    2.4889   -0.5604   -2.0360 C   0  0  0  0  0  0  0  0  0  0  0  0
    3.8430   -0.5783   -1.9719 F   0  0  0  0  0  0  0  0  0  0  0  0
    1.8318    0.4835   -2.6947 C   0  0  0  0  0  0  0  0  0  0  0  0
    2.5473    1.4881   -3.2583 F   0  0  0  0  0  0  0  0  0  0  0  0
    0.4354    0.4928   -2.7739 C   0  0  0  0  0  0  0  0  0  0  0  0
   -1.4896   -1.4615    1.9001 N   0  0  0  0  0  0  0  0  0  0  0  0
    1.8284   -0.0139    1.6709 C   0  0  0  0  0  0  0  0  0  0  0  0
    2.5647    1.0901    1.2226 C   0  0  0  0  0  0  0  0  0  0  0  0
    4.0294    0.9548    0.9301 C   0  0  0  0  0  0  0  0  0  0  0  0
    1.9569    2.3051    1.1013 N   0  0  0  0  0  4  0  0  0  0  0  0
   -1.4469    5.1596    1.2418 H   0  0  0  0  0  0  0  0  0  0  0  0
   -1.5477    3.9013    2.5292 H   0  0  0  0  0  0  0  0  0  0  0  0
   -1.9309    3.4791    0.7993 H   0  0  0  0  0  0  0  0  0  0  0  0
   -1.1608    1.5230    2.1293 H   0  0  0  0  0  0  0  0  0  0  0  0
   -0.7573   -3.6123    4.1909 H   0  0  0  0  0  0  0  0  0  0  0  0
   -3.1047   -4.2323    2.8929 H   0  0  0  0  0  0  0  0  0  0  0  0
   -4.0667   -1.5659   -0.2547 H   0  0  0  0  0  0  0  0  0  0  0  0
   -3.5001    0.4120   -1.2014 H   0  0  0  0  0  0  0  0  0  0  0  0
   -2.0724    1.4618   -1.4129 H   0  0  0  0  0  0  0  0  0  0  0  0
   -2.2318   -1.5389   -2.1090 H   0  0  0  0  0  0  0  0  0  0  0  0
   -2.1504   -0.1708   -3.2543 H   0  0  0  0  0  0  0  0  0  0  0  0
   -0.2063   -2.3753   -1.0415 H   0  0  0  0  0  0  0  0  0  0  0  0
    2.2570   -2.3872   -0.9191 H   0  0  0  0  0  0  0  0  0  0  0  0
   -0.0637    1.3082   -3.2828 H   0  0  0  0  0  0  0  0  0  0  0  0
    2.3051   -0.9817    1.7760 H   0  0  0  0  0  0  0  0  0  0  0  0
    4.3058   -0.1048    0.7435 H   0  0  0  0  0  0  0  0  0  0  0  0
    4.6137    1.3333    1.7942 H   0  0  0  0  0  0  0  0  0  0  0  0
    4.2913    1.5458    0.0273 H   0  0  0  0  0  0  0  0  0  0  0  0
    2.5138    3.1270    0.7744 H   0  0  0  0  0  0  0  0  0  0  0  0
  1  2  1  0
  2  3  1  0
  3  4  2  0
  4  5  1  0
  5  6  1  0
  6  7  2  0
  7  8  1  0
  8  9  2  0
  9 10  1  0
 10 11  2  0
 11 12  1  0
 12 13  2  0
 13 14  1  0
 14 15  1  0
 15 16  1  0
 16 17  1  0
 17 18  2  0
 18 19  1  0
 19 20  2  0
 20 21  1  0
 20 22  1  0
 22 23  1  0
 22 24  2  0
 13 25  1  0
  5 26  2  0
 26 27  1  0
 27 28  1  0
 27 29  2  0
 29  3  1  0
 25  6  1  0
 25  9  1  0
 24 17  1  0
  1 30  1  0
  1 31  1  0
  1 32  1  0
  4 33  1  0
  8 34  1  0
 10 35  1  0
 12 36  1  0
 15 37  1  0
 15 38  1  0
 16 39  1  0
 16 40  1  0
 18 41  1  0
 19 42  1  0
 24 43  1  0
 26 44  1  0
 28 45  1  0
 28 46  1  0
 28 47  1  0
 29 48  1  0
M  CHG  2   8   1  29   1
M  END
>  <UniqueID>  (2) 
12

>  <SMILES>  (2) 
COc1cc(-c2n[nH+]c3cncc(OCCc4ccc(F)c(F)c4)n23)cc(C)[nH+]1

>  <Energy>  (2) 
93.92328184872457

>  <Genealogy>  (2) 
COc1cc(-c2n[nH+]c3cncc(OCCc4ccc(F)c(F)c4)n23)cc(C)[nH+]1 (protonated)
COc1cc(-c2n[nH+]c3cncc(OCCc4ccc(F)c(F)c4)n23)cc(C)[nH+]1 (3D coordinates assigned)
COc1cc(-c2n[nH+]c3cncc(OCCc4ccc(F)c(F)c4)n23)cc(C)[nH+]1 (optimized conformer: 93.92328184872457 kcal/mol)

$$$$
untitled_line_3
     RDKit          3D

 48 51  0  0  0  0  0  0  0  0999 V2000
   -0.9622    1.4637   -3.0697 C   0  0  0  0  0  0  0  0  0  0  0  0
   -2.1616    0.7831   -2.7185 O   0  0  0  0  0  0  0  0  0  0  0  0
   -2.6349    0.6261   -1.4065 C   0  0  0  0  0  0  0  0  0  0  0  0
   -1.9541    1.1577   -0.2945 C   0  0  0  0  0  0  0  0  0  0  0  0
   -2.4756    0.9691    0.9917 C   0  0  0  0  0  0  0  0  0  0  0  0
   -1.8134    1.5528    2.1742 C   0  0  0  0  0  0  0  0  0  0  0  0
   -2.4438    2.3553    3.0593 N   0  0  0  0  0  4  0  0  0  0  0  0
   -1.5869    2.6921    4.0149 N   0  0  0  0  0  0  0  0  0  0  0  0
   -0.4364    2.0719    3.6937 C   0  0  0  0  0  0  0  0  0  0  0  0
    0.7467    2.0895    4.4202 C   0  0  0  0  0  0  0  0  0  0  0  0
    1.7885    1.3420    3.9590 N   0  0  0  0  0  0  0  0  0  0  0  0
    1.6904    0.5919    2.8198 C   0  0  0  0  0  0  0  0  0  0  0  0
    0.4827    0.5853    2.0834 C   0  0  0  0  0  0  0  0  0  0  0  0
    0.3030   -0.1825    0.9223 O   0  0  0  0  0  0  0  0  0  0  0  0
    1.3251   -0.9105    0.2429 C   0  0  0  0  0  0  0  0  0  0  0  0
    2.2821    0.0422   -0.4808 C   0  0  0  0  0  0  0  0  0  0  0  0
    3.2647   -0.7295   -1.3186 C   0  0  0  0  0  0  0  0  0  0  0  0
    2.9678   -1.0366   -2.6568 C   0  0  0  0  0  0  0  0  0  0  0  0
    3.8682   -1.7817   -3.4243 C   0  0  0  0  0  0  0  0  0  0  0  0
    5.0648   -2.2334   -2.8597 C   0  0  0  0  0  0  0  0  0  0  0  0
    5.9343   -2.9571   -3.6074 F   0  0  0  0  0  0  0  0  0  0  0  0
    5.3608   -1.9433   -1.5237 C   0  0  0  0  0  0  0  0  0  0  0  0
    6.5171   -2.3876   -0.9718 F   0  0  0  0  0  0  0  0  0  0  0  0
    4.4622   -1.1980   -0.7532 C   0  0  0  0  0  0  0  0  0  0  0  0
   -0.5355    1.3529    2.5634 N   0  0  0  0  0  0  0  0  0  0  0  0
   -3.6834    0.2821    1.1478 C   0  0  0  0  0  0  0  0  0  0  0  0
   -4.3424   -0.2280    0.0234 C   0  0  0  0  0  0  0  0  0  0  0  0
   -5.6108   -1.0116    0.1887 C   0  0  0  0  0  0  0  0  0  0  0  0
   -3.7965   -0.0597   -1.2152 N   0  0  0  0  0  4  0  0  0  0  0  0
   -0.8496    1.4533   -4.1731 H   0  0  0  0  0  0  0  0  0  0  0  0
   -1.0044    2.5190   -2.7266 H   0  0  0  0  0  0  0  0  0  0  0  0
   -0.0902    0.9472   -2.6216 H   0  0  0  0  0  0  0  0  0  0  0  0
   -1.0393    1.7219   -0.4207 H   0  0  0  0  0  0  0  0  0  0  0  0
   -3.4370    2.6748    3.0177 H   0  0  0  0  0  0  0  0  0  0  0  0
    0.8403    2.6638    5.3322 H   0  0  0  0  0  0  0  0  0  0  0  0
    2.5412    0.0016    2.5135 H   0  0  0  0  0  0  0  0  0  0  0  0
    0.8327   -1.5651   -0.5079 H   0  0  0  0  0  0  0  0  0  0  0  0
    1.8726   -1.5680    0.9518 H   0  0  0  0  0  0  0  0  0  0  0  0
    1.6997    0.7366   -1.1213 H   0  0  0  0  0  0  0  0  0  0  0  0
    2.8304    0.6702    0.2520 H   0  0  0  0  0  0  0  0  0  0  0  0
    2.0402   -0.7008   -3.1039 H   0  0  0  0  0  0  0  0  0  0  0  0
    3.6357   -2.0116   -4.4562 H   0  0  0  0  0  0  0  0  0  0  0  0
    4.6967   -0.9868    0.2830 H   0  0  0  0  0  0  0  0  0  0  0  0
   -4.1036    0.1385    2.1368 H   0  0  0  0  0  0  0  0  0  0  0  0
   -6.2036   -0.6215    1.0434 H   0  0  0  0  0  0  0  0  0  0  0  0
   -5.3641   -2.0778    0.3732 H   0  0  0  0  0  0  0  0  0  0  0  0
   -6.2356   -0.9372   -0.7262 H   0  0  0  0  0  0  0  0  0  0  0  0
   -4.2831   -0.4583   -2.0500 H   0  0  0  0  0  0  0  0  0  0  0  0
  1  2  1  0
  2  3  1  0
  3  4  2  0
  4  5  1  0
  5  6  1  0
  6  7  2  0
  7  8  1  0
  8  9  2  0
  9 10  1  0
 10 11  2  0
 11 12  1  0
 12 13  2  0
 13 14  1  0
 14 15  1  0
 15 16  1  0
 16 17  1  0
 17 18  2  0
 18 19  1  0
 19 20  2  0
 20 21  1  0
 20 22  1  0
 22 23  1  0
 22 24  2  0
 13 25  1  0
  5 26  2  0
 26 27  1  0
 27 28  1  0
 27 29  2  0
 29  3  1  0
 25  6  1  0
 25  9  1  0
 24 17  1  0
  1 30  1  0
  1 31  1  0
  1 32  1  0
  4 33  1  0
  7 34  1  0
 10 35  1  0
 12 36  1  0
 15 37  1  0
 15 38  1  0
 16 39  1  0
 16 40  1  0
 18 41  1  0
 19 42  1  0
 24 43  1  0
 26 44  1  0
 28 45  1  0
 28 46  1  0
 28 47  1  0
 29 48  1  0
M  CHG  2   7   1  29   1
M  END
>  <UniqueID>  (3) 
13

>  <SMILES>  (3) 
COc1cc(-c2[nH+]nc3cncc(OCCc4ccc(F)c(F)c4)n23)cc(C)[nH+]1

>  <Energy>  (3) 
97.40548121833405

>  <Genealogy>  (3) 
COc1cc(-c2[nH+]nc3cncc(OCCc4ccc(F)c(F)c4)n23)cc(C)[nH+]1 (protonated)
COc1cc(-c2[nH+]nc3cncc(OCCc4ccc(F)c(F)c4)n23)cc(C)[nH+]1 (3D coordinates assigned)
COc1cc(-c2[nH+]nc3cncc(OCCc4ccc(F)c(F)c4)n23)cc(C)[nH+]1 (optimized conformer: 97.40548121833405 kcal/mol)

$$$$
untitled_line_3
     RDKit          3D

 49 52  0  0  0  0  0  0  0  0999 V2000
   -4.6199    0.7531    3.4707 C   0  0  0  0  0  0  0  0  0  0  0  0
   -3.9610    1.6379    2.5703 O   0  0  0  0  0  0  0  0  0  0  0  0
   -3.2731    1.2310    1.4165 C   0  0  0  0  0  0  0  0  0  0  0  0
   -3.1776   -0.1219    1.0425 C   0  0  0  0  0  0  0  0  0  0  0  0
   -2.4728   -0.4737   -0.1135 C   0  0  0  0  0  0  0  0  0  0  0  0
   -2.3858   -1.8890   -0.5220 C   0  0  0  0  0  0  0  0  0  0  0  0
   -3.4582   -2.7008   -0.6460 N   0  0  0  0  0  4  0  0  0  0  0  0
   -3.0465   -3.8857   -1.0810 N   0  0  0  0  0  0  0  0  0  0  0  0
   -1.7106   -3.7733   -1.2061 C   0  0  0  0  0  0  0  0  0  0  0  0
   -0.8256   -4.7630   -1.6143 C   0  0  0  0  0  0  0  0  0  0  0  0
    0.5049   -4.4602   -1.6426 N   0  0  0  0  0  4  0  0  0  0  0  0
    0.9693   -3.2287   -1.2642 C   0  0  0  0  0  0  0  0  0  0  0  0
    0.0599   -2.2337   -0.8405 C   0  0  0  0  0  0  0  0  0  0  0  0
    0.4735   -0.9741   -0.3864 O   0  0  0  0  0  0  0  0  0  0  0  0
    1.8258   -0.5314   -0.3472 C   0  0  0  0  0  0  0  0  0  0  0  0
    1.8669    0.9001    0.1803 C   0  0  0  0  0  0  0  0  0  0  0  0
    3.2813    1.4109    0.2268 C   0  0  0  0  0  0  0  0  0  0  0  0
    4.0717    1.2059    1.3698 C   0  0  0  0  0  0  0  0  0  0  0  0
    5.3958    1.6543    1.3999 C   0  0  0  0  0  0  0  0  0  0  0  0
    5.9427    2.3008    0.2875 C   0  0  0  0  0  0  0  0  0  0  0  0
    7.2278    2.7326    0.3205 F   0  0  0  0  0  0  0  0  0  0  0  0
    5.1660    2.4964   -0.8594 C   0  0  0  0  0  0  0  0  0  0  0  0
    5.6972    3.1160   -1.9424 F   0  0  0  0  0  0  0  0  0  0  0  0
    3.8410    2.0493   -0.8925 C   0  0  0  0  0  0  0  0  0  0  0  0
   -1.2628   -2.5558   -0.8629 N   0  0  0  0  0  0  0  0  0  0  0  0
   -1.9056    0.5320   -0.9037 C   0  0  0  0  0  0  0  0  0  0  0  0
   -1.9993    1.8685   -0.4972 C   0  0  0  0  0  0  0  0  0  0  0  0
   -1.4086    2.9582   -1.3419 C   0  0  0  0  0  0  0  0  0  0  0  0
   -2.6840    2.1833    0.6399 N   0  0  0  0  0  4  0  0  0  0  0  0
   -5.0771    1.3444    4.2902 H   0  0  0  0  0  0  0  0  0  0  0  0
   -5.4235    0.1985    2.9416 H   0  0  0  0  0  0  0  0  0  0  0  0
   -3.8893    0.0418    3.9104 H   0  0  0  0  0  0  0  0  0  0  0  0
   -3.6339   -0.8980    1.6429 H   0  0  0  0  0  0  0  0  0  0  0  0
   -4.4555   -2.4539   -0.4599 H   0  0  0  0  0  0  0  0  0  0  0  0
   -1.1774   -5.7470   -1.8974 H   0  0  0  0  0  0  0  0  0  0  0  0
    1.1865   -5.1903   -1.9478 H   0  0  0  0  0  0  0  0  0  0  0  0
    2.0340   -3.0383   -1.2817 H   0  0  0  0  0  0  0  0  0  0  0  0
    2.4147   -1.1935    0.3249 H   0  0  0  0  0  0  0  0  0  0  0  0
    2.2563   -0.5625   -1.3723 H   0  0  0  0  0  0  0  0  0  0  0  0
    1.4157    0.9328    1.1963 H   0  0  0  0  0  0  0  0  0  0  0  0
    1.2498    1.5525   -0.4748 H   0  0  0  0  0  0  0  0  0  0  0  0
    3.6629    0.6988    2.2351 H   0  0  0  0  0  0  0  0  0  0  0  0
    5.9983    1.4972    2.2853 H   0  0  0  0  0  0  0  0  0  0  0  0
    3.2512    2.1984   -1.7887 H   0  0  0  0  0  0  0  0  0  0  0  0
   -1.3984    0.2773   -1.8271 H   0  0  0  0  0  0  0  0  0  0  0  0
   -2.2024    3.4026   -1.9776 H   0  0  0  0  0  0  0  0  0  0  0  0
   -0.9767    3.7495   -0.6937 H   0  0  0  0  0  0  0  0  0  0  0  0
   -0.5994    2.5658   -1.9941 H   0  0  0  0  0  0  0  0  0  0  0  0
   -2.7682    3.1847    0.9275 H   0  0  0  0  0  0  0  0  0  0  0  0
  1  2  1  0
  2  3  1  0
  3  4  2  0
  4  5  1  0
  5  6  1  0
  6  7  2  0
  7  8  1  0
  8  9  2  0
  9 10  1  0
 10 11  2  0
 11 12  1  0
 12 13  2  0
 13 14  1  0
 14 15  1  0
 15 16  1  0
 16 17  1  0
 17 18  2  0
 18 19  1  0
 19 20  2  0
 20 21  1  0
 20 22  1  0
 22 23  1  0
 22 24  2  0
 13 25  1  0
  5 26  2  0
 26 27  1  0
 27 28  1  0
 27 29  2  0
 29  3  1  0
 25  6  1  0
 25  9  1  0
 24 17  1  0
  1 30  1  0
  1 31  1  0
  1 32  1  0
  4 33  1  0
  7 34  1  0
 10 35  1  0
 11 36  1  0
 12 37  1  0
 15 38  1  0
 15 39  1  0
 16 40  1  0
 16 41  1  0
 18 42  1  0
 19 43  1  0
 24 44  1  0
 26 45  1  0
 28 46  1  0
 28 47  1  0
 28 48  1  0
 29 49  1  0
M  CHG  3   7   1  11   1  29   1
M  END
>  <UniqueID>  (4) 
14

>  <SMILES>  (4) 
COc1cc(-c2[nH+]nc3c[nH+]cc(OCCc4ccc(F)c(F)c4)n23)cc(C)[nH+]1

>  <Energy>  (4) 
95.68140934821153

>  <Genealogy>  (4) 
COc1cc(-c2[nH+]nc3c[nH+]cc(OCCc4ccc(F)c(F)c4)n23)cc(C)[nH+]1 (protonated)
COc1cc(-c2[nH+]nc3c[nH+]cc(OCCc4ccc(F)c(F)c4)n23)cc(C)[nH+]1 (3D coordinates assigned)
COc1cc(-c2[nH+]nc3c[nH+]cc(OCCc4ccc(F)c(F)c4)n23)cc(C)[nH+]1 (optimized conformer: 95.68140934821153 kcal/mol)

$$$$
untitled_line_3
     RDKit          3D

 47 50  0  0  0  0  0  0  0  0999 V2000
    2.0740   -4.6227   -0.6752 C   0  0  0  0  0  0  0  0  0  0  0  0
    2.5817   -3.3079   -0.8687 O   0  0  0  0  0  0  0  0  0  0  0  0
    1.7556   -2.2076   -1.1155 C   0  0  0  0  0  0  0  0  0  0  0  0
    2.3283   -0.9456   -1.2932 C   0  0  0  0  0  0  0  0  0  0  0  0
    1.5038    0.1640   -1.5165 C   0  0  0  0  0  0  0  0  0  0  0  0
    2.1050    1.4945   -1.7301 C   0  0  0  0  0  0  0  0  0  0  0  0
    3.0855    1.7363   -2.6273 N   0  0  0  0  0  4  0  0  0  0  0  0
    3.3701    3.0328   -2.6080 N   0  0  0  0  0  0  0  0  0  0  0  0
    2.5519    3.5617   -1.6789 C   0  0  0  0  0  0  0  0  0  0  0  0
    2.4930    4.8913   -1.2813 C   0  0  0  0  0  0  0  0  0  0  0  0
    1.6188    5.2216   -0.2886 N   0  0  0  0  0  0  0  0  0  0  0  0
    0.8251    4.2854    0.3152 C   0  0  0  0  0  0  0  0  0  0  0  0
    0.9002    2.9339   -0.0914 C   0  0  0  0  0  0  0  0  0  0  0  0
    0.1567    1.9173    0.5228 O   0  0  0  0  0  0  0  0  0  0  0  0
   -0.7673    2.1227    1.5862 C   0  0  0  0  0  0  0  0  0  0  0  0
   -1.4055    0.7879    1.9582 C   0  0  0  0  0  0  0  0  0  0  0  0
   -2.3836    0.9609    3.0884 C   0  0  0  0  0  0  0  0  0  0  0  0
   -1.9489    0.8733    4.4213 C   0  0  0  0  0  0  0  0  0  0  0  0
   -2.8529    1.0653    5.4706 C   0  0  0  0  0  0  0  0  0  0  0  0
   -4.1931    1.3549    5.1978 C   0  0  0  0  0  0  0  0  0  0  0  0
   -5.0658    1.5417    6.2187 F   0  0  0  0  0  0  0  0  0  0  0  0
   -4.6306    1.4569    3.8731 C   0  0  0  0  0  0  0  0  0  0  0  0
   -5.9284    1.7455    3.6063 F   0  0  0  0  0  0  0  0  0  0  0  0
   -3.7287    1.2654    2.8210 C   0  0  0  0  0  0  0  0  0  0  0  0
    1.7581    2.6416   -1.1081 N   0  0  0  0  0  0  0  0  0  0  0  0
    0.1164   -0.0181   -1.6008 C   0  0  0  0  0  0  0  0  0  0  0  0
   -0.4236   -1.3009   -1.4342 C   0  0  0  0  0  0  0  0  0  0  0  0
   -1.9023   -1.5251   -1.4805 C   0  0  0  0  0  0  0  0  0  0  0  0
    0.4028   -2.3521   -1.1845 N   0  0  0  0  0  0  0  0  0  0  0  0
    1.5209   -4.9538   -1.5796 H   0  0  0  0  0  0  0  0  0  0  0  0
    1.3992   -4.6438    0.2067 H   0  0  0  0  0  0  0  0  0  0  0  0
    2.9201   -5.3176   -0.4970 H   0  0  0  0  0  0  0  0  0  0  0  0
    3.4044   -0.8305   -1.2422 H   0  0  0  0  0  0  0  0  0  0  0  0
    3.5434    1.0408   -3.2572 H   0  0  0  0  0  0  0  0  0  0  0  0
    3.1226    5.6445   -1.7359 H   0  0  0  0  0  0  0  0  0  0  0  0
    0.1598    4.5961    1.1083 H   0  0  0  0  0  0  0  0  0  0  0  0
   -0.2323    2.5402    2.4673 H   0  0  0  0  0  0  0  0  0  0  0  0
   -1.5586    2.8329    1.2595 H   0  0  0  0  0  0  0  0  0  0  0  0
   -0.6113    0.0653    2.2481 H   0  0  0  0  0  0  0  0  0  0  0  0
   -1.9241    0.3697    1.0688 H   0  0  0  0  0  0  0  0  0  0  0  0
   -0.9117    0.6582    4.6465 H   0  0  0  0  0  0  0  0  0  0  0  0
   -2.5125    0.9925    6.4956 H   0  0  0  0  0  0  0  0  0  0  0  0
   -4.0764    1.3552    1.7991 H   0  0  0  0  0  0  0  0  0  0  0  0
   -0.5332    0.8246   -1.8062 H   0  0  0  0  0  0  0  0  0  0  0  0
   -2.1209   -2.4852   -1.9936 H   0  0  0  0  0  0  0  0  0  0  0  0
   -2.3021   -1.5714   -0.4466 H   0  0  0  0  0  0  0  0  0  0  0  0
   -2.4144   -0.7086   -2.0329 H   0  0  0  0  0  0  0  0  0  0  0  0
  1  2  1  0
  2  3  1  0
  3  4  2  0
  4  5  1  0
  5  6  1  0
  6  7  2  0
  7  8  1  0
  8  9  2  0
  9 10  1  0
 10 11  2  0
 11 12  1  0
 12 13  2  0
 13 14  1  0
 14 15  1  0
 15 16  1  0
 16 17  1  0
 17 18  2  0
 18 19  1  0
 19 20  2  0
 20 21  1  0
 20 22  1  0
 22 23  1  0
 22 24  2  0
 13 25  1  0
  5 26  2  0
 26 27  1  0
 27 28  1  0
 27 29  2  0
 29  3  1  0
 25  6  1  0
 25  9  1  0
 24 17  1  0
  1 30  1  0
  1 31  1  0
  1 32  1  0
  4 33  1  0
  7 34  1  0
 10 35  1  0
 12 36  1  0
 15 37  1  0
 15 38  1  0
 16 39  1  0
 16 40  1  0
 18 41  1  0
 19 42  1  0
 24 43  1  0
 26 44  1  0
 28 45  1  0
 28 46  1  0
 28 47  1  0
M  CHG  1   7   1
M  END
>  <UniqueID>  (5) 
15

>  <SMILES>  (5) 
COc1cc(-c2[nH+]nc3cncc(OCCc4ccc(F)c(F)c4)n23)cc(C)n1

>  <Energy>  (5) 
93.48261523061902

>  <Genealogy>  (5) 
COc1cc(-c2[nH+]nc3cncc(OCCc4ccc(F)c(F)c4)n23)cc(C)n1 (protonated)
COc1cc(-c2[nH+]nc3cncc(OCCc4ccc(F)c(F)c4)n23)cc(C)n1 (3D coordinates assigned)
COc1cc(-c2[nH+]nc3cncc(OCCc4ccc(F)c(F)c4)n23)cc(C)n1 (optimized conformer: 93.48261523061902 kcal/mol)

$$$$
